

        *** GPGPU-Sim Simulator Version 4.0.0  [build gpgpu-sim_git-commit-_modified_] ***


GPGPU-Sim PTX: simulation mode 0 (can change with PTX_SIM_MODE_FUNC environment variable:
               1=functional simulation only, 0=detailed performance simulator)
GPGPU-Sim PTX: overriding embedded ptx with ptx file (PTX_SIM_USE_PTX_FILE is set)
GPGPU-Sim: Configuration options:

-save_embedded_ptx                      0 # saves ptx files embedded in binary as <n>.ptx
-keep                                   0 # keep intermediate files created by GPGPU-Sim when interfacing with external programs
-gpgpu_ptx_save_converted_ptxplus                    0 # Saved converted ptxplus to a file
-gpgpu_occupancy_sm_number                   70 # The SM number to pass to ptxas when getting register usage for computing GPU occupancy. This parameter is required in the config.
-ptx_opcode_latency_int         4,13,4,5,145 # Opcode latencies for integers <ADD,MAX,MUL,MAD,DIV>Default 1,1,19,25,145
-ptx_opcode_latency_fp          4,13,4,5,39 # Opcode latencies for single precision floating points <ADD,MAX,MUL,MAD,DIV>Default 1,1,1,1,30
-ptx_opcode_latency_dp         8,19,8,8,330 # Opcode latencies for double precision floating points <ADD,MAX,MUL,MAD,DIV>Default 8,8,8,8,335
-ptx_opcode_latency_sfu                  100 # Opcode latencies for SFU instructionsDefault 8
-ptx_opcode_latency_tesnor                   64 # Opcode latencies for Tensor instructionsDefault 64
-ptx_opcode_initiation_int            2,2,2,2,8 # Opcode initiation intervals for integers <ADD,MAX,MUL,MAD,DIV>Default 1,1,4,4,32
-ptx_opcode_initiation_fp            2,2,2,2,4 # Opcode initiation intervals for single precision floating points <ADD,MAX,MUL,MAD,DIV>Default 1,1,1,1,5
-ptx_opcode_initiation_dp          4,4,4,4,130 # Opcode initiation intervals for double precision floating points <ADD,MAX,MUL,MAD,DIV>Default 8,8,8,8,130
-ptx_opcode_initiation_sfu                    8 # Opcode initiation intervals for sfu instructionsDefault 8
-ptx_opcode_initiation_tensor                   64 # Opcode initiation intervals for tensor instructionsDefault 64
-cdp_latency         7200,8000,100,12000,1600 # CDP API latency <cudaStreamCreateWithFlags, cudaGetParameterBufferV2_init_perWarp, cudaGetParameterBufferV2_perKernel, cudaLaunchDeviceV2_init_perWarp, cudaLaunchDevicV2_perKernel>Default 7200,8000,100,12000,1600
-network_mode                           1 # Interconnection network mode
-inter_config_file   config_volta_islip.icnt # Interconnection network config file
-inct_in_buffer_limit                   64 # in_buffer_limit
-inct_out_buffer_limit                   64 # out_buffer_limit
-inct_subnets                           2 # subnets
-gpgpu_ptx_use_cuobjdump                    1 # Use cuobjdump to extract ptx and sass from binaries
-gpgpu_experimental_lib_support                    0 # Try to extract code from cuda libraries [Broken because of unknown cudaGetExportTable]
-checkpoint_option                      0 #  checkpointing flag (0 = no checkpoint)
-checkpoint_kernel                      1 #  checkpointing during execution of which kernel (1- 1st kernel)
-checkpoint_CTA                         0 #  checkpointing after # of CTA (< less than total CTA)
-resume_option                          0 #  resume flag (0 = no resume)
-resume_kernel                          0 #  Resume from which kernel (1= 1st kernel)
-resume_CTA                             0 #  resume from which CTA 
-checkpoint_CTA_t                       0 #  resume from which CTA 
-checkpoint_insn_Y                      0 #  resume from which CTA 
-gpgpu_ptx_convert_to_ptxplus                    0 # Convert SASS (native ISA) to ptxplus and run ptxplus
-gpgpu_ptx_force_max_capability                   70 # Force maximum compute capability
-gpgpu_ptx_inst_debug_to_file                    0 # Dump executed instructions' debug information to file
-gpgpu_ptx_inst_debug_file       inst_debug.txt # Executed instructions' debug output file
-gpgpu_ptx_inst_debug_thread_uid                    1 # Thread UID for executed instructions' debug output
-gpgpu_simd_model                       1 # 1 = post-dominator
-gpgpu_shader_core_pipeline              2048:32 # shader core pipeline config, i.e., {<nthread>:<warpsize>}
-gpgpu_tex_cache:l1  N:16:128:24,L:R:m:N:L,T:128:4,128:2 # per-shader L1 texture cache  (READ-ONLY) config  {<nsets>:<bsize>:<assoc>,<rep>:<wr>:<alloc>:<wr_alloc>,<mshr>:<N>:<merge>,<mq>:<rf>}
-gpgpu_const_cache:l1 N:128:64:8,L:R:f:N:L,S:2:64,4 # per-shader L1 constant memory cache  (READ-ONLY) config  {<nsets>:<bsize>:<assoc>,<rep>:<wr>:<alloc>:<wr_alloc>,<mshr>:<N>:<merge>,<mq>} 
-gpgpu_cache:il1     N:64:128:16,L:R:f:N:L,S:2:48,4 # shader L1 instruction cache config  {<nsets>:<bsize>:<assoc>,<rep>:<wr>:<alloc>:<wr_alloc>,<mshr>:<N>:<merge>,<mq>} 
-gpgpu_cache:dl1     S:4:128:64,L:L:s:N:L,A:256:8,16:0,32 # per-shader L1 data cache config  {<nsets>:<bsize>:<assoc>,<rep>:<wr>:<alloc>:<wr_alloc>,<mshr>:<N>:<merge>,<mq> | none}
-l1_latency                            28 # L1 Hit Latency
-smem_latency                          19 # smem Latency
-gpgpu_cache:dl1PrefL1                 none # per-shader L1 data cache config  {<nsets>:<bsize>:<assoc>,<rep>:<wr>:<alloc>:<wr_alloc>,<mshr>:<N>:<merge>,<mq> | none}
-gpgpu_cache:dl1PrefShared                 none # per-shader L1 data cache config  {<nsets>:<bsize>:<assoc>,<rep>:<wr>:<alloc>:<wr_alloc>,<mshr>:<N>:<merge>,<mq> | none}
-gmem_skip_L1D                          0 # global memory access skip L1D cache (implements -Xptxas -dlcm=cg, default=no skip)
-gpgpu_perfect_mem                      0 # enable perfect memory mode (no cache miss)
-n_regfile_gating_group                    4 # group of lanes that should be read/written together)
-gpgpu_clock_gated_reg_file                    0 # enable clock gated reg file for power calculations
-gpgpu_clock_gated_lanes                    0 # enable clock gated lanes for power calculations
-gpgpu_shader_registers                65536 # Number of registers per shader core. Limits number of concurrent CTAs. (default 8192)
-gpgpu_registers_per_block                 8192 # Maximum number of registers per CTA. (default 8192)
-gpgpu_ignore_resources_limitation                    0 # gpgpu_ignore_resources_limitation (default 0)
-gpgpu_shader_cta                      32 # Maximum number of concurrent CTAs in shader (default 8)
-gpgpu_num_cta_barriers                   16 # Maximum number of named barriers per CTA (default 16)
-gpgpu_n_clusters                     110 # number of processing clusters
-gpgpu_n_cores_per_cluster                    2 # number of simd cores per cluster
-gpgpu_n_cluster_ejection_buffer_size                   32 # number of packets in ejection buffer
-gpgpu_n_ldst_response_buffer_size                    2 # number of response packets in ld/st unit ejection buffer
-gpgpu_shmem_per_block                49152 # Size of shared memory per thread block or CTA (default 48kB)
-gpgpu_shmem_size                   16384 # Size of shared memory per shader core (default 16kB)
-adaptive_volta_cache_config                    1 # adaptive_volta_cache_config
-gpgpu_shmem_size                   98304 # Size of shared memory per shader core (default 16kB)
-gpgpu_shmem_size_PrefL1                16384 # Size of shared memory per shader core (default 16kB)
-gpgpu_shmem_size_PrefShared                16384 # Size of shared memory per shader core (default 16kB)
-gpgpu_shmem_num_banks                   32 # Number of banks in the shared memory in each shader core (default 16)
-gpgpu_shmem_limited_broadcast                    0 # Limit shared memory to do one broadcast per cycle (default on)
-gpgpu_shmem_warp_parts                    1 # Number of portions a warp is divided into for shared memory bank conflict check 
-mem_unit_ports                         4 # The number of memory transactions allowed per core cycle
-gpgpu_shmem_warp_parts                    1 # Number of portions a warp is divided into for shared memory bank conflict check 
-gpgpu_warpdistro_shader                   -1 # Specify which shader core to collect the warp size distribution from
-gpgpu_warp_issue_shader                    0 # Specify which shader core to collect the warp issue distribution from
-gpgpu_local_mem_map                    1 # Mapping from local memory space address to simulated GPU physical address space (default = enabled)
-gpgpu_num_reg_banks                    8 # Number of register banks (default = 8)
-gpgpu_reg_bank_use_warp_id                    0 # Use warp ID in mapping registers to banks (default = off)
-sub_core_model                         1 # Sub Core Volta/Pascal model (default = off)
-enable_specialized_operand_collector                    0 # enable_specialized_operand_collector
-gpgpu_operand_collector_num_units_sp                    4 # number of collector units (default = 4)
-gpgpu_operand_collector_num_units_dp                    0 # number of collector units (default = 0)
-gpgpu_operand_collector_num_units_sfu                    4 # number of collector units (default = 4)
-gpgpu_operand_collector_num_units_int                    0 # number of collector units (default = 0)
-gpgpu_operand_collector_num_units_tensor_core                    4 # number of collector units (default = 4)
-gpgpu_operand_collector_num_units_mem                    2 # number of collector units (default = 2)
-gpgpu_operand_collector_num_units_gen                    8 # number of collector units (default = 0)
-gpgpu_operand_collector_num_in_ports_sp                    1 # number of collector unit in ports (default = 1)
-gpgpu_operand_collector_num_in_ports_dp                    0 # number of collector unit in ports (default = 0)
-gpgpu_operand_collector_num_in_ports_sfu                    1 # number of collector unit in ports (default = 1)
-gpgpu_operand_collector_num_in_ports_int                    0 # number of collector unit in ports (default = 0)
-gpgpu_operand_collector_num_in_ports_tensor_core                    1 # number of collector unit in ports (default = 1)
-gpgpu_operand_collector_num_in_ports_mem                    1 # number of collector unit in ports (default = 1)
-gpgpu_operand_collector_num_in_ports_gen                    8 # number of collector unit in ports (default = 0)
-gpgpu_operand_collector_num_out_ports_sp                    1 # number of collector unit in ports (default = 1)
-gpgpu_operand_collector_num_out_ports_dp                    0 # number of collector unit in ports (default = 0)
-gpgpu_operand_collector_num_out_ports_sfu                    1 # number of collector unit in ports (default = 1)
-gpgpu_operand_collector_num_out_ports_int                    0 # number of collector unit in ports (default = 0)
-gpgpu_operand_collector_num_out_ports_tensor_core                    1 # number of collector unit in ports (default = 1)
-gpgpu_operand_collector_num_out_ports_mem                    1 # number of collector unit in ports (default = 1)
-gpgpu_operand_collector_num_out_ports_gen                    8 # number of collector unit in ports (default = 0)
-gpgpu_coalesce_arch                   60 # Coalescing arch (GT200 = 13, Fermi = 20)
-gpgpu_num_sched_per_core                    4 # Number of warp schedulers per core
-gpgpu_max_insn_issue_per_warp                    1 # Max number of instructions that can be issued per warp in one cycle by scheduler (either 1 or 2)
-gpgpu_dual_issue_diff_exec_units                    1 # should dual issue use two different execution unit resources (Default = 1)
-gpgpu_simt_core_sim_order                    1 # Select the simulation order of cores in a cluster (0=Fix, 1=Round-Robin)
-gpgpu_pipeline_widths 4,4,4,4,4,4,4,4,4,4,8,4,4 # Pipeline widths ID_OC_SP,ID_OC_DP,ID_OC_INT,ID_OC_SFU,ID_OC_MEM,OC_EX_SP,OC_EX_DP,OC_EX_INT,OC_EX_SFU,OC_EX_MEM,EX_WB,ID_OC_TENSOR_CORE,OC_EX_TENSOR_CORE
-gpgpu_tensor_core_avail                    1 # Tensor Core Available (default=0)
-gpgpu_num_sp_units                     4 # Number of SP units (default=1)
-gpgpu_num_dp_units                     4 # Number of DP units (default=0)
-gpgpu_num_int_units                    4 # Number of INT units (default=0)
-gpgpu_num_sfu_units                    4 # Number of SF units (default=1)
-gpgpu_num_tensor_core_units                    4 # Number of tensor_core units (default=1)
-gpgpu_num_mem_units                    1 # Number if ldst units (default=1) WARNING: not hooked up to anything
-gpgpu_scheduler     two_level_active:6:0:1 # Scheduler configuration: < lrr | gto | two_level_active > If two_level_active:<num_active_warps>:<inner_prioritization>:<outer_prioritization>For complete list of prioritization values see shader.h enum scheduler_prioritization_typeDefault: gto
-gpgpu_concurrent_kernel_sm                    0 # Support concurrent kernels on a SM (default = disabled)
-perf_sim_memcpy                        1 # Fill the L2 cache on memcpy
-gpgpu_dram_scheduler                    1 # 0 = fifo, 1 = FR-FCFS (defaul)
-gpgpu_dram_partition_queues          64:64:64:64 # i2$:$2d:d2$:$2i
-l2_ideal                               0 # Use a ideal L2 cache that always hit
-gpgpu_cache:dl2     S:4:128:16,L:B:m:L:L,A:192:4,32:0,32 # unified banked L2 data cache config  {<nsets>:<bsize>:<assoc>,<rep>:<wr>:<alloc>:<wr_alloc>,<mshr>:<N>:<merge>,<mq>}
-gpgpu_cache:dl2_texture_only                    0 # L2 cache used for texture only
-gpgpu_n_mem                            5 # number of memory modules (e.g. memory controllers) in gpu
-gpgpu_n_sub_partition_per_mchannel                    2 # number of memory subpartition in each memory module
-gpgpu_n_mem_per_ctrlr                    1 # number of memory chips per memory controller
-gpgpu_memlatency_stat                   14 # track and display latency statistics 0x2 enables MC, 0x4 enables queue logs
-gpgpu_frfcfs_dram_sched_queue_size                  128 # 0 = unlimited (default); # entries per chip
-gpgpu_dram_return_queue_size                  384 # 0 = unlimited (default); # entries per chip
-gpgpu_dram_buswidth                   32 # default = 4 bytes (8 bytes per cycle at DDR)
-gpgpu_dram_burst_length                    2 # Burst length of each DRAM request (default = 4 data bus cycle)
-dram_data_command_freq_ratio                    2 # Frequency ratio between DRAM data bus and command bus (default = 2 times, i.e. DDR)
-gpgpu_dram_timing_opt nbk=16:CCD=1:RRD=3:RCD=12:RAS=28:RP=12:RC=40: CL=12:WL=2:CDLR=3:WR=10:nbkgrp=4:CCDL=2:RTPL=3 # DRAM timing parameters = {nbk:tCCD:tRRD:tRCD:tRAS:tRP:tRC:CL:WL:tCDLR:tWR:nbkgrp:tCCDL:tRTPL}
-rop_latency                          120 # ROP queue latency (default 85)
-dram_latency                         100 # DRAM latency (default 30)
-dual_bus_interface                     1 # dual_bus_interface (default = 0) 
-dram_bnk_indexing_policy                    0 # dram_bnk_indexing_policy (0 = normal indexing, 1 = Xoring with the higher bits) (Default = 0)
-dram_bnkgrp_indexing_policy                    1 # dram_bnkgrp_indexing_policy (0 = take higher bits, 1 = take lower bits) (Default = 0)
-Seperate_Write_Queue_Enable                    0 # Seperate_Write_Queue_Enable
-Write_Queue_Size                32:28:16 # Write_Queue_Size
-Elimnate_rw_turnaround                    0 # elimnate_rw_turnaround i.e set tWTR and tRTW = 0
-icnt_flit_size                        40 # icnt_flit_size
-gpgpu_mem_addr_mapping dramid@8;00000000.00000000.00000000.00000000.0000RRRR.RRRRRRRR.RBBBCCCB.CCCSSSSS # mapping memory address to dram model {dramid@<start bit>;<memory address map>}
-gpgpu_mem_addr_test                    0 # run sweep test to check address mapping for aliased address
-gpgpu_mem_address_mask                    1 # 0 = old addressing mask, 1 = new addressing mask, 2 = new add. mask + flipped bank sel and chip sel bits
-memory_partition_indexing                    0 # 0 = no indexing, 1 = bitwise xoring, 2 = IPoly, 3 = custom indexing
-gpuwattch_xml_file  gpuwattch_titanv.xml # GPUWattch XML file
-power_simulation_enabled                    1 # Turn on power simulator (1=On, 0=Off)
-power_per_cycle_dump                    0 # Dump detailed power output each cycle
-power_trace_enabled                    0 # produce a file for the power trace (1=On, 0=Off)
-power_trace_zlevel                     6 # Compression level of the power trace output log (0=no comp, 9=highest)
-steady_power_levels_enabled                    0 # produce a file for the steady power levels (1=On, 0=Off)
-steady_state_definition                  8:4 # allowed deviation:number of samples
-gpgpu_max_cycle                        0 # terminates gpu simulation early (0 = no limit)
-gpgpu_max_insn                         0 # terminates gpu simulation early (0 = no limit)
-gpgpu_max_cta                          0 # terminates gpu simulation early (0 = no limit)
-gpgpu_runtime_stat                   500 # display runtime statistics such as dram utilization {<freq>:<flag>}
-liveness_message_freq                    1 # Minimum number of seconds between simulation liveness messages (0 = always print)
-gpgpu_compute_capability_major                    7 # Major compute capability version number
-gpgpu_compute_capability_minor                    0 # Minor compute capability version number
-gpgpu_flush_l1_cache                    1 # Flush L1 cache at the end of each kernel call
-gpgpu_flush_l2_cache                    0 # Flush L2 cache at the end of each kernel call
-gpgpu_deadlock_detect                    1 # Stop the simulation at deadlock (1=on (default), 0=off)
-gpgpu_ptx_instruction_classification                    0 # if enabled will classify ptx instruction types per kernel (Max 255 kernels now)
-gpgpu_ptx_sim_mode                     0 # Select between Performance (default) or Functional simulation (1)
-gpgpu_clock_domains 1455.0:1455.0:1455.0:1000.0 # Clock Domain Frequencies in MhZ {<Core Clock>:<ICNT Clock>:<L2 Clock>:<DRAM Clock>}
-gpgpu_max_concurrent_kernel                    8 # maximum kernels that can run concurrently on GPU
-gpgpu_cflog_interval                    0 # Interval between each snapshot in control flow logger
-visualizer_enabled                     0 # Turn on visualizer output (1=On, 0=Off)
-visualizer_outputfile                 NULL # Specifies the output log file for visualizer
-visualizer_zlevel                      6 # Compression level of the visualizer output log (0=no comp, 9=highest)
-gpgpu_stack_size_limit                 1024 # GPU thread stack size
-gpgpu_heap_size_limit              8388608 # GPU malloc heap size 
-gpgpu_runtime_sync_depth_limit                    2 # GPU device runtime synchronize depth
-gpgpu_runtime_pending_launch_count_limit                 2048 # GPU device runtime pending launch count
-trace_enabled                          0 # Turn on traces
-trace_components                    none # comma seperated list of traces to enable. Complete list found in trace_streams.tup. Default none
-trace_sampling_core                    0 # The core which is printed using CORE_DPRINTF. Default 0
-trace_sampling_memory_partition                   -1 # The memory partition which is printed using MEMPART_DPRINTF. Default -1 (i.e. all)
-enable_ptx_file_line_stats                    1 # Turn on PTX source line statistic profiling. (1 = On)
-ptx_line_stats_filename gpgpu_inst_stats.txt # Output file for PTX source line statistics.
-gpgpu_kernel_launch_latency                    0 # Kernel launch latency in cycles. Default: 0
-gpgpu_cdp_enabled                      0 # Turn on CDP
DRAM Timing Options:
nbk                                    16 # number of banks
CCD                                     1 # column to column delay
RRD                                     3 # minimal delay between activation of rows in different banks
RCD                                    12 # row to column delay
RAS                                    28 # time needed to activate row
RP                                     12 # time needed to precharge (deactivate) row
RC                                     40 # row cycle time
CDLR                                    3 # switching from write to read (changes tWTR)
WR                                     10 # last data-in to row precharge
CL                                     12 # CAS latency
WL                                      2 # Write latency
nbkgrp                                  4 # number of bank groups
CCDL                                    2 # column to column delay between accesses to different bank groups
RTPL                                    3 # read to precharge delay between accesses to different bank groups
Total number of memory sub partition = 10
addr_dec_mask[CHIP]  = 0000000000000000 	high:64 low:0
addr_dec_mask[BK]    = 0000000000007100 	high:15 low:8
addr_dec_mask[ROW]   = 000000000fff8000 	high:28 low:15
addr_dec_mask[COL]   = 0000000000000eff 	high:12 low:0
addr_dec_mask[BURST] = 000000000000001f 	high:5 low:0
sub_partition_id_mask = 0000000000000100
GPGPU-Sim uArch: clock freqs: 1455000000.000000:1455000000.000000:1455000000.000000:1000000000.000000
GPGPU-Sim uArch: clock periods: 0.00000000068728522337:0.00000000068728522337:0.00000000068728522337:0.00000000100000000000
*** Initializing Memory Statistics ***
GPGPU-Sim uArch: interconnect node map (shaderID+MemID to icntID)
GPGPU-Sim uArch: Memory nodes ID start from index: 110
GPGPU-Sim uArch:    0   1   2   3   4   5   6   7   8   9  10
GPGPU-Sim uArch:   11  12  13  14  15  16  17  18  19  20  21
GPGPU-Sim uArch:   22  23  24  25  26  27  28  29  30  31  32
GPGPU-Sim uArch:   33  34  35  36  37  38  39  40  41  42  43
GPGPU-Sim uArch:   44  45  46  47  48  49  50  51  52  53  54
GPGPU-Sim uArch:   55  56  57  58  59  60  61  62  63  64  65
GPGPU-Sim uArch:   66  67  68  69  70  71  72  73  74  75  76
GPGPU-Sim uArch:   77  78  79  80  81  82  83  84  85  86  87
GPGPU-Sim uArch:   88  89  90  91  92  93  94  95  96  97  98
GPGPU-Sim uArch:   99 100 101 102 103 104 105 106 107 108 109
GPGPU-Sim uArch:  110 111 112 113 114 115 116 117 118 119 120
GPGPU-Sim uArch: interconnect node reverse map (icntID to shaderID+MemID)
GPGPU-Sim uArch: Memory nodes start from ID: 110
GPGPU-Sim uArch:    0   1   2   3   4   5   6   7   8   9  10
GPGPU-Sim uArch:   11  12  13  14  15  16  17  18  19  20  21
GPGPU-Sim uArch:   22  23  24  25  26  27  28  29  30  31  32
GPGPU-Sim uArch:   33  34  35  36  37  38  39  40  41  42  43
GPGPU-Sim uArch:   44  45  46  47  48  49  50  51  52  53  54
GPGPU-Sim uArch:   55  56  57  58  59  60  61  62  63  64  65
GPGPU-Sim uArch:   66  67  68  69  70  71  72  73  74  75  76
GPGPU-Sim uArch:   77  78  79  80  81  82  83  84  85  86  87
GPGPU-Sim uArch:   88  89  90  91  92  93  94  95  96  97  98
GPGPU-Sim uArch:   99 100 101 102 103 104 105 106 107 108 109
GPGPU-Sim uArch:  110 111 112 113 114 115 116 117 118 119 120
88dbced0e641243fec0af4d70f2dd6f5  /scratch/wangsy/gpu-lab/rodinia-lab/cuda/backprop/backprop
Extracting PTX file and ptxas options    1: backprop.1.sm_30.ptx -arch=sm_30
GPGPU-Sim uArch: performance model initialization complete.
self exe links to: /scratch/wangsy/gpu-lab/rodinia-lab/cuda/backprop/backprop
self exe links to: /scratch/wangsy/gpu-lab/rodinia-lab/cuda/backprop/backprop
9.0
GPGPU-Sim PTX: __cudaRegisterFatBinary, fat_cubin_handle = 1, filename=default
self exe links to: /scratch/wangsy/gpu-lab/rodinia-lab/cuda/backprop/backprop
Running md5sum using "md5sum /scratch/wangsy/gpu-lab/rodinia-lab/cuda/backprop/backprop "
self exe links to: /scratch/wangsy/gpu-lab/rodinia-lab/cuda/backprop/backprop
Extracting specific PTX file named backprop.1.sm_30.ptx 
GPGPU-Sim PTX: __cudaRegisterFunction _Z24bpnn_adjust_weights_cudaPfiS_iS_S_ : hostFun 0x0x4020f0, fat_cubin_handle = 1
GPGPU-Sim PTX: Parsing backprop.1.sm_30.ptx
GPGPU-Sim PTX: allocating shared region for "_Z22bpnn_layerforward_CUDAPfS_S_S_ii$__cuda_local_var_16178_34_non_const_input_node" from 0x0 to 0x40 (shared memory space)
GPGPU-Sim PTX: allocating shared region for "_Z22bpnn_layerforward_CUDAPfS_S_S_ii$__cuda_local_var_16179_34_non_const_weight_matrix" from 0x80 to 0x480 (shared memory space)
GPGPU-Sim PTX: instruction assembly for function '_Z22bpnn_layerforward_CUDAPfS_S_S_ii'...   done.
GPGPU-Sim PTX: instruction assembly for function '_Z24bpnn_adjust_weights_cudaPfiS_iS_S_'...   done.
GPGPU-Sim PTX: finished parsing EMBEDDED .ptx file backprop.1.sm_30.ptx
GPGPU-Sim PTX: loading globals with explicit initializers... 
GPGPU-Sim PTX: finished loading globals (0 bytes total).
GPGPU-Sim PTX: loading constants with explicit initializers...  done.
GPGPU-Sim PTX: Loading PTXInfo from backprop.1.sm_30.ptx
GPGPU-Sim PTX: Kernel '_Z24bpnn_adjust_weights_cudaPfiS_iS_S_' : regs=21, lmem=0, smem=0, cmem=376
GPGPU-Sim PTX: Kernel '_Z22bpnn_layerforward_CUDAPfS_S_S_ii' : regs=15, lmem=0, smem=1088, cmem=360
GPGPU-Sim PTX: __cudaRegisterFunction _Z22bpnn_layerforward_CUDAPfS_S_S_ii : hostFun 0x0x402000, fat_cubin_handle = 1
Random number generator seed: 7
Input layer size : 65536
Starting training kernel
Performing GPU computation
GPGPU-Sim PTX: Setting up arguments for 8 bytes starting at 0x7ffe8fdc4ba8..
GPGPU-Sim PTX: Setting up arguments for 8 bytes starting at 0x7ffe8fdc4ba0..
GPGPU-Sim PTX: Setting up arguments for 8 bytes starting at 0x7ffe8fdc4b98..
GPGPU-Sim PTX: Setting up arguments for 8 bytes starting at 0x7ffe8fdc4b90..
GPGPU-Sim PTX: Setting up arguments for 4 bytes starting at 0x7ffe8fdc4b8c..
GPGPU-Sim PTX: Setting up arguments for 4 bytes starting at 0x7ffe8fdc4b88..

GPGPU-Sim PTX: cudaLaunch for 0x0x402000 (mode=performance simulation) on stream 0
GPGPU-Sim PTX: finding reconvergence points for '_Z22bpnn_layerforward_CUDAPfS_S_S_ii'...
GPGPU-Sim PTX: Finding dominators for '_Z22bpnn_layerforward_CUDAPfS_S_S_ii'...
GPGPU-Sim PTX: Finding immediate dominators for '_Z22bpnn_layerforward_CUDAPfS_S_S_ii'...
GPGPU-Sim PTX: Finding postdominators for '_Z22bpnn_layerforward_CUDAPfS_S_S_ii'...
GPGPU-Sim PTX: Finding immediate postdominators for '_Z22bpnn_layerforward_CUDAPfS_S_S_ii'...
GPGPU-Sim PTX: pre-decoding instructions for '_Z22bpnn_layerforward_CUDAPfS_S_S_ii'...
GPGPU-Sim PTX: reconvergence points for _Z22bpnn_layerforward_CUDAPfS_S_S_ii...
GPGPU-Sim PTX:  1 (potential) branch divergence @  PC=0x068 (backprop.1.sm_30.ptx:48) @%p2 bra BB0_2;
GPGPU-Sim PTX:    immediate post dominator      @  PC=0x098 (backprop.1.sm_30.ptx:57) cvta.to.global.u64 %rd1, %rd4;
GPGPU-Sim PTX:  2 (potential) branch divergence @  PC=0x150 (backprop.1.sm_30.ptx:80) @%p3 bra BB0_7;
GPGPU-Sim PTX:    immediate post dominator      @  PC=0x228 (backprop.1.sm_30.ptx:115) setp.eq.s32%p1, %r4, 0;
GPGPU-Sim PTX:  3 (potential) branch divergence @  PC=0x1a0 (backprop.1.sm_30.ptx:93) @%p4 bra BB0_6;
GPGPU-Sim PTX:    immediate post dominator      @  PC=0x200 (backprop.1.sm_30.ptx:108) bar.sync 0;
GPGPU-Sim PTX:  4 (potential) branch divergence @  PC=0x220 (backprop.1.sm_30.ptx:112) @%p5 bra BB0_4;
GPGPU-Sim PTX:    immediate post dominator      @  PC=0x228 (backprop.1.sm_30.ptx:115) setp.eq.s32%p1, %r4, 0;
GPGPU-Sim PTX:  5 (potential) branch divergence @  PC=0x248 (backprop.1.sm_30.ptx:119) @!%p1 bra BB0_9;
GPGPU-Sim PTX:    immediate post dominator      @  PC=0x290 (backprop.1.sm_30.ptx:132) ret;
GPGPU-Sim PTX:  6 (potential) branch divergence @  PC=0x250 (backprop.1.sm_30.ptx:120) bra.uni BB0_8;
GPGPU-Sim PTX:    immediate post dominator      @  PC=0x258 (backprop.1.sm_30.ptx:123) cvta.to.global.u64 %rd10, %rd5;
GPGPU-Sim PTX: ... end of reconvergence points for _Z22bpnn_layerforward_CUDAPfS_S_S_ii
GPGPU-Sim PTX: ... done pre-decoding instructions for '_Z22bpnn_layerforward_CUDAPfS_S_S_ii'.
GPGPU-Sim PTX: pushing kernel '_Z22bpnn_layerforward_CUDAPfS_S_S_ii' to stream 0, gridDim= (1,4096,1) blockDim = (16,16,1) 
GPGPU-Sim uArch: Shader 0 bind to kernel 1 '_Z22bpnn_layerforward_CUDAPfS_S_S_ii'
GPGPU-Sim uArch: CTA/core = 8, limited by: threads
GPGPU-Sim: Reconfigure L1 cache in Volta Archi to 112KB
GPGPU-Sim uArch: Shader 2 bind to kernel 1 '_Z22bpnn_layerforward_CUDAPfS_S_S_ii'
GPGPU-Sim uArch: Shader 4 bind to kernel 1 '_Z22bpnn_layerforward_CUDAPfS_S_S_ii'
GPGPU-Sim uArch: Shader 6 bind to kernel 1 '_Z22bpnn_layerforward_CUDAPfS_S_S_ii'
GPGPU-Sim uArch: Shader 8 bind to kernel 1 '_Z22bpnn_layerforward_CUDAPfS_S_S_ii'
GPGPU-Sim uArch: Shader 10 bind to kernel 1 '_Z22bpnn_layerforward_CUDAPfS_S_S_ii'
GPGPU-Sim uArch: Shader 12 bind to kernel 1 '_Z22bpnn_layerforward_CUDAPfS_S_S_ii'
GPGPU-Sim uArch: Shader 14 bind to kernel 1 '_Z22bpnn_layerforward_CUDAPfS_S_S_ii'
GPGPU-Sim uArch: Shader 16 bind to kernel 1 '_Z22bpnn_layerforward_CUDAPfS_S_S_ii'
GPGPU-Sim uArch: Shader 18 bind to kernel 1 '_Z22bpnn_layerforward_CUDAPfS_S_S_ii'
GPGPU-Sim uArch: Shader 20 bind to kernel 1 '_Z22bpnn_layerforward_CUDAPfS_S_S_ii'
GPGPU-Sim uArch: Shader 22 bind to kernel 1 '_Z22bpnn_layerforward_CUDAPfS_S_S_ii'
GPGPU-Sim uArch: Shader 24 bind to kernel 1 '_Z22bpnn_layerforward_CUDAPfS_S_S_ii'
GPGPU-Sim uArch: Shader 26 bind to kernel 1 '_Z22bpnn_layerforward_CUDAPfS_S_S_ii'
GPGPU-Sim uArch: Shader 28 bind to kernel 1 '_Z22bpnn_layerforward_CUDAPfS_S_S_ii'
GPGPU-Sim uArch: Shader 30 bind to kernel 1 '_Z22bpnn_layerforward_CUDAPfS_S_S_ii'
GPGPU-Sim uArch: Shader 32 bind to kernel 1 '_Z22bpnn_layerforward_CUDAPfS_S_S_ii'
GPGPU-Sim uArch: Shader 34 bind to kernel 1 '_Z22bpnn_layerforward_CUDAPfS_S_S_ii'
GPGPU-Sim uArch: Shader 36 bind to kernel 1 '_Z22bpnn_layerforward_CUDAPfS_S_S_ii'
GPGPU-Sim uArch: Shader 38 bind to kernel 1 '_Z22bpnn_layerforward_CUDAPfS_S_S_ii'
GPGPU-Sim uArch: Shader 40 bind to kernel 1 '_Z22bpnn_layerforward_CUDAPfS_S_S_ii'
GPGPU-Sim uArch: Shader 42 bind to kernel 1 '_Z22bpnn_layerforward_CUDAPfS_S_S_ii'
GPGPU-Sim uArch: Shader 44 bind to kernel 1 '_Z22bpnn_layerforward_CUDAPfS_S_S_ii'
GPGPU-Sim uArch: Shader 46 bind to kernel 1 '_Z22bpnn_layerforward_CUDAPfS_S_S_ii'
GPGPU-Sim uArch: Shader 48 bind to kernel 1 '_Z22bpnn_layerforward_CUDAPfS_S_S_ii'
GPGPU-Sim uArch: Shader 50 bind to kernel 1 '_Z22bpnn_layerforward_CUDAPfS_S_S_ii'
GPGPU-Sim uArch: Shader 52 bind to kernel 1 '_Z22bpnn_layerforward_CUDAPfS_S_S_ii'
GPGPU-Sim uArch: Shader 54 bind to kernel 1 '_Z22bpnn_layerforward_CUDAPfS_S_S_ii'
GPGPU-Sim uArch: Shader 56 bind to kernel 1 '_Z22bpnn_layerforward_CUDAPfS_S_S_ii'
GPGPU-Sim uArch: Shader 58 bind to kernel 1 '_Z22bpnn_layerforward_CUDAPfS_S_S_ii'
GPGPU-Sim uArch: Shader 60 bind to kernel 1 '_Z22bpnn_layerforward_CUDAPfS_S_S_ii'
GPGPU-Sim uArch: Shader 62 bind to kernel 1 '_Z22bpnn_layerforward_CUDAPfS_S_S_ii'
GPGPU-Sim uArch: Shader 64 bind to kernel 1 '_Z22bpnn_layerforward_CUDAPfS_S_S_ii'
GPGPU-Sim uArch: Shader 66 bind to kernel 1 '_Z22bpnn_layerforward_CUDAPfS_S_S_ii'
GPGPU-Sim uArch: Shader 68 bind to kernel 1 '_Z22bpnn_layerforward_CUDAPfS_S_S_ii'
GPGPU-Sim uArch: Shader 70 bind to kernel 1 '_Z22bpnn_layerforward_CUDAPfS_S_S_ii'
GPGPU-Sim uArch: Shader 72 bind to kernel 1 '_Z22bpnn_layerforward_CUDAPfS_S_S_ii'
GPGPU-Sim uArch: Shader 74 bind to kernel 1 '_Z22bpnn_layerforward_CUDAPfS_S_S_ii'
GPGPU-Sim uArch: Shader 76 bind to kernel 1 '_Z22bpnn_layerforward_CUDAPfS_S_S_ii'
GPGPU-Sim uArch: Shader 78 bind to kernel 1 '_Z22bpnn_layerforward_CUDAPfS_S_S_ii'
GPGPU-Sim uArch: Shader 80 bind to kernel 1 '_Z22bpnn_layerforward_CUDAPfS_S_S_ii'
GPGPU-Sim uArch: Shader 82 bind to kernel 1 '_Z22bpnn_layerforward_CUDAPfS_S_S_ii'
GPGPU-Sim uArch: Shader 84 bind to kernel 1 '_Z22bpnn_layerforward_CUDAPfS_S_S_ii'
GPGPU-Sim uArch: Shader 86 bind to kernel 1 '_Z22bpnn_layerforward_CUDAPfS_S_S_ii'
GPGPU-Sim uArch: Shader 88 bind to kernel 1 '_Z22bpnn_layerforward_CUDAPfS_S_S_ii'
GPGPU-Sim uArch: Shader 90 bind to kernel 1 '_Z22bpnn_layerforward_CUDAPfS_S_S_ii'
GPGPU-Sim uArch: Shader 92 bind to kernel 1 '_Z22bpnn_layerforward_CUDAPfS_S_S_ii'
GPGPU-Sim uArch: Shader 94 bind to kernel 1 '_Z22bpnn_layerforward_CUDAPfS_S_S_ii'
GPGPU-Sim uArch: Shader 96 bind to kernel 1 '_Z22bpnn_layerforward_CUDAPfS_S_S_ii'
GPGPU-Sim uArch: Shader 98 bind to kernel 1 '_Z22bpnn_layerforward_CUDAPfS_S_S_ii'
GPGPU-Sim uArch: Shader 100 bind to kernel 1 '_Z22bpnn_layerforward_CUDAPfS_S_S_ii'
GPGPU-Sim uArch: Shader 102 bind to kernel 1 '_Z22bpnn_layerforward_CUDAPfS_S_S_ii'
GPGPU-Sim uArch: Shader 104 bind to kernel 1 '_Z22bpnn_layerforward_CUDAPfS_S_S_ii'
GPGPU-Sim uArch: Shader 106 bind to kernel 1 '_Z22bpnn_layerforward_CUDAPfS_S_S_ii'
GPGPU-Sim uArch: Shader 108 bind to kernel 1 '_Z22bpnn_layerforward_CUDAPfS_S_S_ii'
GPGPU-Sim uArch: Shader 110 bind to kernel 1 '_Z22bpnn_layerforward_CUDAPfS_S_S_ii'
GPGPU-Sim uArch: Shader 112 bind to kernel 1 '_Z22bpnn_layerforward_CUDAPfS_S_S_ii'
GPGPU-Sim uArch: Shader 114 bind to kernel 1 '_Z22bpnn_layerforward_CUDAPfS_S_S_ii'
GPGPU-Sim uArch: Shader 116 bind to kernel 1 '_Z22bpnn_layerforward_CUDAPfS_S_S_ii'
GPGPU-Sim uArch: Shader 118 bind to kernel 1 '_Z22bpnn_layerforward_CUDAPfS_S_S_ii'
GPGPU-Sim uArch: Shader 120 bind to kernel 1 '_Z22bpnn_layerforward_CUDAPfS_S_S_ii'
GPGPU-Sim uArch: Shader 122 bind to kernel 1 '_Z22bpnn_layerforward_CUDAPfS_S_S_ii'
GPGPU-Sim uArch: Shader 124 bind to kernel 1 '_Z22bpnn_layerforward_CUDAPfS_S_S_ii'
GPGPU-Sim uArch: Shader 126 bind to kernel 1 '_Z22bpnn_layerforward_CUDAPfS_S_S_ii'
GPGPU-Sim uArch: Shader 128 bind to kernel 1 '_Z22bpnn_layerforward_CUDAPfS_S_S_ii'
GPGPU-Sim uArch: Shader 130 bind to kernel 1 '_Z22bpnn_layerforward_CUDAPfS_S_S_ii'
GPGPU-Sim uArch: Shader 132 bind to kernel 1 '_Z22bpnn_layerforward_CUDAPfS_S_S_ii'
GPGPU-Sim uArch: Shader 134 bind to kernel 1 '_Z22bpnn_layerforward_CUDAPfS_S_S_ii'
GPGPU-Sim uArch: Shader 136 bind to kernel 1 '_Z22bpnn_layerforward_CUDAPfS_S_S_ii'
GPGPU-Sim uArch: Shader 138 bind to kernel 1 '_Z22bpnn_layerforward_CUDAPfS_S_S_ii'
GPGPU-Sim uArch: Shader 140 bind to kernel 1 '_Z22bpnn_layerforward_CUDAPfS_S_S_ii'
GPGPU-Sim uArch: Shader 142 bind to kernel 1 '_Z22bpnn_layerforward_CUDAPfS_S_S_ii'
GPGPU-Sim uArch: Shader 144 bind to kernel 1 '_Z22bpnn_layerforward_CUDAPfS_S_S_ii'
GPGPU-Sim uArch: Shader 146 bind to kernel 1 '_Z22bpnn_layerforward_CUDAPfS_S_S_ii'
GPGPU-Sim uArch: Shader 148 bind to kernel 1 '_Z22bpnn_layerforward_CUDAPfS_S_S_ii'
GPGPU-Sim uArch: Shader 150 bind to kernel 1 '_Z22bpnn_layerforward_CUDAPfS_S_S_ii'
GPGPU-Sim uArch: Shader 152 bind to kernel 1 '_Z22bpnn_layerforward_CUDAPfS_S_S_ii'
GPGPU-Sim uArch: Shader 154 bind to kernel 1 '_Z22bpnn_layerforward_CUDAPfS_S_S_ii'
GPGPU-Sim uArch: Shader 156 bind to kernel 1 '_Z22bpnn_layerforward_CUDAPfS_S_S_ii'
GPGPU-Sim uArch: Shader 158 bind to kernel 1 '_Z22bpnn_layerforward_CUDAPfS_S_S_ii'
GPGPU-Sim uArch: Shader 160 bind to kernel 1 '_Z22bpnn_layerforward_CUDAPfS_S_S_ii'
GPGPU-Sim uArch: Shader 162 bind to kernel 1 '_Z22bpnn_layerforward_CUDAPfS_S_S_ii'
GPGPU-Sim uArch: Shader 164 bind to kernel 1 '_Z22bpnn_layerforward_CUDAPfS_S_S_ii'
GPGPU-Sim uArch: Shader 166 bind to kernel 1 '_Z22bpnn_layerforward_CUDAPfS_S_S_ii'
GPGPU-Sim uArch: Shader 168 bind to kernel 1 '_Z22bpnn_layerforward_CUDAPfS_S_S_ii'
GPGPU-Sim uArch: Shader 170 bind to kernel 1 '_Z22bpnn_layerforward_CUDAPfS_S_S_ii'
GPGPU-Sim uArch: Shader 172 bind to kernel 1 '_Z22bpnn_layerforward_CUDAPfS_S_S_ii'
GPGPU-Sim uArch: Shader 174 bind to kernel 1 '_Z22bpnn_layerforward_CUDAPfS_S_S_ii'
GPGPU-Sim uArch: Shader 176 bind to kernel 1 '_Z22bpnn_layerforward_CUDAPfS_S_S_ii'
GPGPU-Sim uArch: Shader 178 bind to kernel 1 '_Z22bpnn_layerforward_CUDAPfS_S_S_ii'
GPGPU-Sim uArch: Shader 180 bind to kernel 1 '_Z22bpnn_layerforward_CUDAPfS_S_S_ii'
GPGPU-Sim uArch: Shader 182 bind to kernel 1 '_Z22bpnn_layerforward_CUDAPfS_S_S_ii'
GPGPU-Sim uArch: Shader 184 bind to kernel 1 '_Z22bpnn_layerforward_CUDAPfS_S_S_ii'
GPGPU-Sim uArch: Shader 186 bind to kernel 1 '_Z22bpnn_layerforward_CUDAPfS_S_S_ii'
GPGPU-Sim uArch: Shader 188 bind to kernel 1 '_Z22bpnn_layerforward_CUDAPfS_S_S_ii'
GPGPU-Sim uArch: Shader 190 bind to kernel 1 '_Z22bpnn_layerforward_CUDAPfS_S_S_ii'
GPGPU-Sim uArch: Shader 192 bind to kernel 1 '_Z22bpnn_layerforward_CUDAPfS_S_S_ii'
GPGPU-Sim uArch: Shader 194 bind to kernel 1 '_Z22bpnn_layerforward_CUDAPfS_S_S_ii'
GPGPU-Sim uArch: Shader 196 bind to kernel 1 '_Z22bpnn_layerforward_CUDAPfS_S_S_ii'
GPGPU-Sim uArch: Shader 198 bind to kernel 1 '_Z22bpnn_layerforward_CUDAPfS_S_S_ii'
GPGPU-Sim uArch: Shader 200 bind to kernel 1 '_Z22bpnn_layerforward_CUDAPfS_S_S_ii'
GPGPU-Sim uArch: Shader 202 bind to kernel 1 '_Z22bpnn_layerforward_CUDAPfS_S_S_ii'
GPGPU-Sim uArch: Shader 204 bind to kernel 1 '_Z22bpnn_layerforward_CUDAPfS_S_S_ii'
GPGPU-Sim uArch: Shader 206 bind to kernel 1 '_Z22bpnn_layerforward_CUDAPfS_S_S_ii'
GPGPU-Sim uArch: Shader 208 bind to kernel 1 '_Z22bpnn_layerforward_CUDAPfS_S_S_ii'
GPGPU-Sim uArch: Shader 210 bind to kernel 1 '_Z22bpnn_layerforward_CUDAPfS_S_S_ii'
GPGPU-Sim uArch: Shader 212 bind to kernel 1 '_Z22bpnn_layerforward_CUDAPfS_S_S_ii'
GPGPU-Sim uArch: Shader 214 bind to kernel 1 '_Z22bpnn_layerforward_CUDAPfS_S_S_ii'
GPGPU-Sim uArch: Shader 216 bind to kernel 1 '_Z22bpnn_layerforward_CUDAPfS_S_S_ii'
GPGPU-Sim uArch: Shader 218 bind to kernel 1 '_Z22bpnn_layerforward_CUDAPfS_S_S_ii'
GPGPU-Sim uArch: Shader 1 bind to kernel 1 '_Z22bpnn_layerforward_CUDAPfS_S_S_ii'
GPGPU-Sim uArch: Shader 3 bind to kernel 1 '_Z22bpnn_layerforward_CUDAPfS_S_S_ii'
GPGPU-Sim uArch: Shader 5 bind to kernel 1 '_Z22bpnn_layerforward_CUDAPfS_S_S_ii'
GPGPU-Sim uArch: Shader 7 bind to kernel 1 '_Z22bpnn_layerforward_CUDAPfS_S_S_ii'
GPGPU-Sim uArch: Shader 9 bind to kernel 1 '_Z22bpnn_layerforward_CUDAPfS_S_S_ii'
GPGPU-Sim uArch: Shader 11 bind to kernel 1 '_Z22bpnn_layerforward_CUDAPfS_S_S_ii'
GPGPU-Sim uArch: Shader 13 bind to kernel 1 '_Z22bpnn_layerforward_CUDAPfS_S_S_ii'
GPGPU-Sim uArch: Shader 15 bind to kernel 1 '_Z22bpnn_layerforward_CUDAPfS_S_S_ii'
GPGPU-Sim uArch: Shader 17 bind to kernel 1 '_Z22bpnn_layerforward_CUDAPfS_S_S_ii'
GPGPU-Sim uArch: Shader 19 bind to kernel 1 '_Z22bpnn_layerforward_CUDAPfS_S_S_ii'
GPGPU-Sim uArch: Shader 21 bind to kernel 1 '_Z22bpnn_layerforward_CUDAPfS_S_S_ii'
GPGPU-Sim uArch: Shader 23 bind to kernel 1 '_Z22bpnn_layerforward_CUDAPfS_S_S_ii'
GPGPU-Sim uArch: Shader 25 bind to kernel 1 '_Z22bpnn_layerforward_CUDAPfS_S_S_ii'
GPGPU-Sim uArch: Shader 27 bind to kernel 1 '_Z22bpnn_layerforward_CUDAPfS_S_S_ii'
GPGPU-Sim uArch: Shader 29 bind to kernel 1 '_Z22bpnn_layerforward_CUDAPfS_S_S_ii'
GPGPU-Sim uArch: Shader 31 bind to kernel 1 '_Z22bpnn_layerforward_CUDAPfS_S_S_ii'
GPGPU-Sim uArch: Shader 33 bind to kernel 1 '_Z22bpnn_layerforward_CUDAPfS_S_S_ii'
GPGPU-Sim uArch: Shader 35 bind to kernel 1 '_Z22bpnn_layerforward_CUDAPfS_S_S_ii'
GPGPU-Sim uArch: Shader 37 bind to kernel 1 '_Z22bpnn_layerforward_CUDAPfS_S_S_ii'
GPGPU-Sim uArch: Shader 39 bind to kernel 1 '_Z22bpnn_layerforward_CUDAPfS_S_S_ii'
GPGPU-Sim uArch: Shader 41 bind to kernel 1 '_Z22bpnn_layerforward_CUDAPfS_S_S_ii'
GPGPU-Sim uArch: Shader 43 bind to kernel 1 '_Z22bpnn_layerforward_CUDAPfS_S_S_ii'
GPGPU-Sim uArch: Shader 45 bind to kernel 1 '_Z22bpnn_layerforward_CUDAPfS_S_S_ii'
GPGPU-Sim uArch: Shader 47 bind to kernel 1 '_Z22bpnn_layerforward_CUDAPfS_S_S_ii'
GPGPU-Sim uArch: Shader 49 bind to kernel 1 '_Z22bpnn_layerforward_CUDAPfS_S_S_ii'
GPGPU-Sim uArch: Shader 51 bind to kernel 1 '_Z22bpnn_layerforward_CUDAPfS_S_S_ii'
GPGPU-Sim uArch: Shader 53 bind to kernel 1 '_Z22bpnn_layerforward_CUDAPfS_S_S_ii'
GPGPU-Sim uArch: Shader 55 bind to kernel 1 '_Z22bpnn_layerforward_CUDAPfS_S_S_ii'
GPGPU-Sim uArch: Shader 57 bind to kernel 1 '_Z22bpnn_layerforward_CUDAPfS_S_S_ii'
GPGPU-Sim uArch: Shader 59 bind to kernel 1 '_Z22bpnn_layerforward_CUDAPfS_S_S_ii'
GPGPU-Sim uArch: Shader 61 bind to kernel 1 '_Z22bpnn_layerforward_CUDAPfS_S_S_ii'
GPGPU-Sim uArch: Shader 63 bind to kernel 1 '_Z22bpnn_layerforward_CUDAPfS_S_S_ii'
GPGPU-Sim uArch: Shader 65 bind to kernel 1 '_Z22bpnn_layerforward_CUDAPfS_S_S_ii'
GPGPU-Sim uArch: Shader 67 bind to kernel 1 '_Z22bpnn_layerforward_CUDAPfS_S_S_ii'
GPGPU-Sim uArch: Shader 69 bind to kernel 1 '_Z22bpnn_layerforward_CUDAPfS_S_S_ii'
GPGPU-Sim uArch: Shader 71 bind to kernel 1 '_Z22bpnn_layerforward_CUDAPfS_S_S_ii'
GPGPU-Sim uArch: Shader 73 bind to kernel 1 '_Z22bpnn_layerforward_CUDAPfS_S_S_ii'
GPGPU-Sim uArch: Shader 75 bind to kernel 1 '_Z22bpnn_layerforward_CUDAPfS_S_S_ii'
GPGPU-Sim uArch: Shader 77 bind to kernel 1 '_Z22bpnn_layerforward_CUDAPfS_S_S_ii'
GPGPU-Sim uArch: Shader 79 bind to kernel 1 '_Z22bpnn_layerforward_CUDAPfS_S_S_ii'
GPGPU-Sim uArch: Shader 81 bind to kernel 1 '_Z22bpnn_layerforward_CUDAPfS_S_S_ii'
GPGPU-Sim uArch: Shader 83 bind to kernel 1 '_Z22bpnn_layerforward_CUDAPfS_S_S_ii'
GPGPU-Sim uArch: Shader 85 bind to kernel 1 '_Z22bpnn_layerforward_CUDAPfS_S_S_ii'
GPGPU-Sim uArch: Shader 87 bind to kernel 1 '_Z22bpnn_layerforward_CUDAPfS_S_S_ii'
GPGPU-Sim uArch: Shader 89 bind to kernel 1 '_Z22bpnn_layerforward_CUDAPfS_S_S_ii'
GPGPU-Sim uArch: Shader 91 bind to kernel 1 '_Z22bpnn_layerforward_CUDAPfS_S_S_ii'
GPGPU-Sim uArch: Shader 93 bind to kernel 1 '_Z22bpnn_layerforward_CUDAPfS_S_S_ii'
GPGPU-Sim uArch: Shader 95 bind to kernel 1 '_Z22bpnn_layerforward_CUDAPfS_S_S_ii'
GPGPU-Sim uArch: Shader 97 bind to kernel 1 '_Z22bpnn_layerforward_CUDAPfS_S_S_ii'
GPGPU-Sim uArch: Shader 99 bind to kernel 1 '_Z22bpnn_layerforward_CUDAPfS_S_S_ii'
GPGPU-Sim uArch: Shader 101 bind to kernel 1 '_Z22bpnn_layerforward_CUDAPfS_S_S_ii'
GPGPU-Sim uArch: Shader 103 bind to kernel 1 '_Z22bpnn_layerforward_CUDAPfS_S_S_ii'
GPGPU-Sim uArch: Shader 105 bind to kernel 1 '_Z22bpnn_layerforward_CUDAPfS_S_S_ii'
GPGPU-Sim uArch: Shader 107 bind to kernel 1 '_Z22bpnn_layerforward_CUDAPfS_S_S_ii'
GPGPU-Sim uArch: Shader 109 bind to kernel 1 '_Z22bpnn_layerforward_CUDAPfS_S_S_ii'
GPGPU-Sim uArch: Shader 111 bind to kernel 1 '_Z22bpnn_layerforward_CUDAPfS_S_S_ii'
GPGPU-Sim uArch: Shader 113 bind to kernel 1 '_Z22bpnn_layerforward_CUDAPfS_S_S_ii'
GPGPU-Sim uArch: Shader 115 bind to kernel 1 '_Z22bpnn_layerforward_CUDAPfS_S_S_ii'
GPGPU-Sim uArch: Shader 117 bind to kernel 1 '_Z22bpnn_layerforward_CUDAPfS_S_S_ii'
GPGPU-Sim uArch: Shader 119 bind to kernel 1 '_Z22bpnn_layerforward_CUDAPfS_S_S_ii'
GPGPU-Sim uArch: Shader 121 bind to kernel 1 '_Z22bpnn_layerforward_CUDAPfS_S_S_ii'
GPGPU-Sim uArch: Shader 123 bind to kernel 1 '_Z22bpnn_layerforward_CUDAPfS_S_S_ii'
GPGPU-Sim uArch: Shader 125 bind to kernel 1 '_Z22bpnn_layerforward_CUDAPfS_S_S_ii'
GPGPU-Sim uArch: Shader 127 bind to kernel 1 '_Z22bpnn_layerforward_CUDAPfS_S_S_ii'
GPGPU-Sim uArch: Shader 129 bind to kernel 1 '_Z22bpnn_layerforward_CUDAPfS_S_S_ii'
GPGPU-Sim uArch: Shader 131 bind to kernel 1 '_Z22bpnn_layerforward_CUDAPfS_S_S_ii'
GPGPU-Sim uArch: Shader 133 bind to kernel 1 '_Z22bpnn_layerforward_CUDAPfS_S_S_ii'
GPGPU-Sim uArch: Shader 135 bind to kernel 1 '_Z22bpnn_layerforward_CUDAPfS_S_S_ii'
GPGPU-Sim uArch: Shader 137 bind to kernel 1 '_Z22bpnn_layerforward_CUDAPfS_S_S_ii'
GPGPU-Sim uArch: Shader 139 bind to kernel 1 '_Z22bpnn_layerforward_CUDAPfS_S_S_ii'
GPGPU-Sim uArch: Shader 141 bind to kernel 1 '_Z22bpnn_layerforward_CUDAPfS_S_S_ii'
GPGPU-Sim uArch: Shader 143 bind to kernel 1 '_Z22bpnn_layerforward_CUDAPfS_S_S_ii'
GPGPU-Sim uArch: Shader 145 bind to kernel 1 '_Z22bpnn_layerforward_CUDAPfS_S_S_ii'
GPGPU-Sim uArch: Shader 147 bind to kernel 1 '_Z22bpnn_layerforward_CUDAPfS_S_S_ii'
GPGPU-Sim uArch: Shader 149 bind to kernel 1 '_Z22bpnn_layerforward_CUDAPfS_S_S_ii'
GPGPU-Sim uArch: Shader 151 bind to kernel 1 '_Z22bpnn_layerforward_CUDAPfS_S_S_ii'
GPGPU-Sim uArch: Shader 153 bind to kernel 1 '_Z22bpnn_layerforward_CUDAPfS_S_S_ii'
GPGPU-Sim uArch: Shader 155 bind to kernel 1 '_Z22bpnn_layerforward_CUDAPfS_S_S_ii'
GPGPU-Sim uArch: Shader 157 bind to kernel 1 '_Z22bpnn_layerforward_CUDAPfS_S_S_ii'
GPGPU-Sim uArch: Shader 159 bind to kernel 1 '_Z22bpnn_layerforward_CUDAPfS_S_S_ii'
GPGPU-Sim uArch: Shader 161 bind to kernel 1 '_Z22bpnn_layerforward_CUDAPfS_S_S_ii'
GPGPU-Sim uArch: Shader 163 bind to kernel 1 '_Z22bpnn_layerforward_CUDAPfS_S_S_ii'
GPGPU-Sim uArch: Shader 165 bind to kernel 1 '_Z22bpnn_layerforward_CUDAPfS_S_S_ii'
GPGPU-Sim uArch: Shader 167 bind to kernel 1 '_Z22bpnn_layerforward_CUDAPfS_S_S_ii'
GPGPU-Sim uArch: Shader 169 bind to kernel 1 '_Z22bpnn_layerforward_CUDAPfS_S_S_ii'
GPGPU-Sim uArch: Shader 171 bind to kernel 1 '_Z22bpnn_layerforward_CUDAPfS_S_S_ii'
GPGPU-Sim uArch: Shader 173 bind to kernel 1 '_Z22bpnn_layerforward_CUDAPfS_S_S_ii'
GPGPU-Sim uArch: Shader 175 bind to kernel 1 '_Z22bpnn_layerforward_CUDAPfS_S_S_ii'
GPGPU-Sim uArch: Shader 177 bind to kernel 1 '_Z22bpnn_layerforward_CUDAPfS_S_S_ii'
GPGPU-Sim uArch: Shader 179 bind to kernel 1 '_Z22bpnn_layerforward_CUDAPfS_S_S_ii'
GPGPU-Sim uArch: Shader 181 bind to kernel 1 '_Z22bpnn_layerforward_CUDAPfS_S_S_ii'
GPGPU-Sim uArch: Shader 183 bind to kernel 1 '_Z22bpnn_layerforward_CUDAPfS_S_S_ii'
GPGPU-Sim uArch: Shader 185 bind to kernel 1 '_Z22bpnn_layerforward_CUDAPfS_S_S_ii'
GPGPU-Sim uArch: Shader 187 bind to kernel 1 '_Z22bpnn_layerforward_CUDAPfS_S_S_ii'
GPGPU-Sim uArch: Shader 189 bind to kernel 1 '_Z22bpnn_layerforward_CUDAPfS_S_S_ii'
GPGPU-Sim uArch: Shader 191 bind to kernel 1 '_Z22bpnn_layerforward_CUDAPfS_S_S_ii'
GPGPU-Sim uArch: Shader 193 bind to kernel 1 '_Z22bpnn_layerforward_CUDAPfS_S_S_ii'
GPGPU-Sim uArch: Shader 195 bind to kernel 1 '_Z22bpnn_layerforward_CUDAPfS_S_S_ii'
GPGPU-Sim uArch: Shader 197 bind to kernel 1 '_Z22bpnn_layerforward_CUDAPfS_S_S_ii'
GPGPU-Sim uArch: Shader 199 bind to kernel 1 '_Z22bpnn_layerforward_CUDAPfS_S_S_ii'
GPGPU-Sim uArch: Shader 201 bind to kernel 1 '_Z22bpnn_layerforward_CUDAPfS_S_S_ii'
GPGPU-Sim uArch: Shader 203 bind to kernel 1 '_Z22bpnn_layerforward_CUDAPfS_S_S_ii'
GPGPU-Sim uArch: Shader 205 bind to kernel 1 '_Z22bpnn_layerforward_CUDAPfS_S_S_ii'
GPGPU-Sim uArch: Shader 207 bind to kernel 1 '_Z22bpnn_layerforward_CUDAPfS_S_S_ii'
GPGPU-Sim uArch: Shader 209 bind to kernel 1 '_Z22bpnn_layerforward_CUDAPfS_S_S_ii'
GPGPU-Sim uArch: Shader 211 bind to kernel 1 '_Z22bpnn_layerforward_CUDAPfS_S_S_ii'
GPGPU-Sim uArch: Shader 213 bind to kernel 1 '_Z22bpnn_layerforward_CUDAPfS_S_S_ii'
GPGPU-Sim uArch: Shader 215 bind to kernel 1 '_Z22bpnn_layerforward_CUDAPfS_S_S_ii'
GPGPU-Sim uArch: Shader 217 bind to kernel 1 '_Z22bpnn_layerforward_CUDAPfS_S_S_ii'
GPGPU-Sim uArch: Shader 219 bind to kernel 1 '_Z22bpnn_layerforward_CUDAPfS_S_S_ii'
Destroy streams for kernel 1: size 0
kernel_name = _Z22bpnn_layerforward_CUDAPfS_S_S_ii 
kernel_launch_uid = 1 
gpu_sim_cycle = 110020
gpu_sim_insn = 104923136
gpu_ipc =     953.6733
gpu_tot_sim_cycle = 110020
gpu_tot_sim_insn = 104923136
gpu_tot_ipc =     953.6733
gpu_tot_issued_cta = 4096
gpu_occupancy = 81.5475% 
gpu_tot_occupancy = 81.5475% 
max_total_param_size = 0
gpu_stall_dramfull = 370971
gpu_stall_icnt2sh    = 206700
partiton_level_parallism =       3.2143
partiton_level_parallism_total  =       3.2143
partiton_level_parallism_util =       3.4449
partiton_level_parallism_util_total  =       3.4449
L2_BW  =     151.4279 GB/Sec
L2_BW_total  =     151.4279 GB/Sec
gpu_total_sim_rate=64847

========= Core cache stats =========
L1I_cache:
	L1I_total_cache_accesses = 2203648
	L1I_total_cache_misses = 36931
	L1I_total_cache_miss_rate = 0.0168
	L1I_total_cache_pending_hits = 0
	L1I_total_cache_reservation_fails = 156124
L1D_cache:
	L1D_cache_core[0]: Access = 2450, Miss = 1575, Miss_rate = 0.643, Pending_hits = 0, Reservation_fails = 0
	L1D_cache_core[1]: Access = 2548, Miss = 1638, Miss_rate = 0.643, Pending_hits = 0, Reservation_fails = 0
	L1D_cache_core[2]: Access = 2548, Miss = 1638, Miss_rate = 0.643, Pending_hits = 0, Reservation_fails = 0
	L1D_cache_core[3]: Access = 1568, Miss = 1008, Miss_rate = 0.643, Pending_hits = 0, Reservation_fails = 0
	L1D_cache_core[4]: Access = 1568, Miss = 1008, Miss_rate = 0.643, Pending_hits = 0, Reservation_fails = 0
	L1D_cache_core[5]: Access = 1568, Miss = 1008, Miss_rate = 0.643, Pending_hits = 0, Reservation_fails = 0
	L1D_cache_core[6]: Access = 1862, Miss = 1193, Miss_rate = 0.641, Pending_hits = 0, Reservation_fails = 0
	L1D_cache_core[7]: Access = 1568, Miss = 1008, Miss_rate = 0.643, Pending_hits = 0, Reservation_fails = 0
	L1D_cache_core[8]: Access = 1568, Miss = 1007, Miss_rate = 0.642, Pending_hits = 0, Reservation_fails = 0
	L1D_cache_core[9]: Access = 1568, Miss = 1008, Miss_rate = 0.643, Pending_hits = 0, Reservation_fails = 0
	L1D_cache_core[10]: Access = 1568, Miss = 1007, Miss_rate = 0.642, Pending_hits = 0, Reservation_fails = 0
	L1D_cache_core[11]: Access = 2548, Miss = 1638, Miss_rate = 0.643, Pending_hits = 0, Reservation_fails = 0
	L1D_cache_core[12]: Access = 2548, Miss = 1638, Miss_rate = 0.643, Pending_hits = 0, Reservation_fails = 0
	L1D_cache_core[13]: Access = 2646, Miss = 1701, Miss_rate = 0.643, Pending_hits = 0, Reservation_fails = 0
	L1D_cache_core[14]: Access = 1862, Miss = 1196, Miss_rate = 0.642, Pending_hits = 0, Reservation_fails = 0
	L1D_cache_core[15]: Access = 1568, Miss = 1008, Miss_rate = 0.643, Pending_hits = 0, Reservation_fails = 0
	L1D_cache_core[16]: Access = 1862, Miss = 1196, Miss_rate = 0.642, Pending_hits = 0, Reservation_fails = 0
	L1D_cache_core[17]: Access = 1568, Miss = 1008, Miss_rate = 0.643, Pending_hits = 0, Reservation_fails = 0
	L1D_cache_core[18]: Access = 1568, Miss = 1008, Miss_rate = 0.643, Pending_hits = 0, Reservation_fails = 0
	L1D_cache_core[19]: Access = 1568, Miss = 1008, Miss_rate = 0.643, Pending_hits = 0, Reservation_fails = 0
	L1D_cache_core[20]: Access = 1568, Miss = 1008, Miss_rate = 0.643, Pending_hits = 0, Reservation_fails = 0
	L1D_cache_core[21]: Access = 1568, Miss = 1007, Miss_rate = 0.642, Pending_hits = 0, Reservation_fails = 0
	L1D_cache_core[22]: Access = 2744, Miss = 1764, Miss_rate = 0.643, Pending_hits = 0, Reservation_fails = 0
	L1D_cache_core[23]: Access = 1960, Miss = 1260, Miss_rate = 0.643, Pending_hits = 0, Reservation_fails = 0
	L1D_cache_core[24]: Access = 1960, Miss = 1260, Miss_rate = 0.643, Pending_hits = 0, Reservation_fails = 0
	L1D_cache_core[25]: Access = 1862, Miss = 1197, Miss_rate = 0.643, Pending_hits = 0, Reservation_fails = 0
	L1D_cache_core[26]: Access = 2058, Miss = 1323, Miss_rate = 0.643, Pending_hits = 0, Reservation_fails = 0
	L1D_cache_core[27]: Access = 1862, Miss = 1197, Miss_rate = 0.643, Pending_hits = 0, Reservation_fails = 0
	L1D_cache_core[28]: Access = 1568, Miss = 1008, Miss_rate = 0.643, Pending_hits = 0, Reservation_fails = 0
	L1D_cache_core[29]: Access = 1568, Miss = 1008, Miss_rate = 0.643, Pending_hits = 0, Reservation_fails = 0
	L1D_cache_core[30]: Access = 1568, Miss = 1008, Miss_rate = 0.643, Pending_hits = 0, Reservation_fails = 0
	L1D_cache_core[31]: Access = 1568, Miss = 1008, Miss_rate = 0.643, Pending_hits = 0, Reservation_fails = 0
	L1D_cache_core[32]: Access = 1568, Miss = 1008, Miss_rate = 0.643, Pending_hits = 0, Reservation_fails = 0
	L1D_cache_core[33]: Access = 3136, Miss = 2018, Miss_rate = 0.643, Pending_hits = 0, Reservation_fails = 0
	L1D_cache_core[34]: Access = 3136, Miss = 2016, Miss_rate = 0.643, Pending_hits = 0, Reservation_fails = 0
	L1D_cache_core[35]: Access = 2352, Miss = 1512, Miss_rate = 0.643, Pending_hits = 0, Reservation_fails = 0
	L1D_cache_core[36]: Access = 2254, Miss = 1449, Miss_rate = 0.643, Pending_hits = 0, Reservation_fails = 0
	L1D_cache_core[37]: Access = 2646, Miss = 1701, Miss_rate = 0.643, Pending_hits = 0, Reservation_fails = 0
	L1D_cache_core[38]: Access = 2156, Miss = 1386, Miss_rate = 0.643, Pending_hits = 0, Reservation_fails = 0
	L1D_cache_core[39]: Access = 2156, Miss = 1386, Miss_rate = 0.643, Pending_hits = 0, Reservation_fails = 0
	L1D_cache_core[40]: Access = 2156, Miss = 1385, Miss_rate = 0.642, Pending_hits = 0, Reservation_fails = 0
	L1D_cache_core[41]: Access = 2254, Miss = 1448, Miss_rate = 0.642, Pending_hits = 0, Reservation_fails = 0
	L1D_cache_core[42]: Access = 1862, Miss = 1197, Miss_rate = 0.643, Pending_hits = 0, Reservation_fails = 0
	L1D_cache_core[43]: Access = 1862, Miss = 1197, Miss_rate = 0.643, Pending_hits = 0, Reservation_fails = 0
	L1D_cache_core[44]: Access = 3234, Miss = 2080, Miss_rate = 0.643, Pending_hits = 0, Reservation_fails = 0
	L1D_cache_core[45]: Access = 3332, Miss = 2142, Miss_rate = 0.643, Pending_hits = 0, Reservation_fails = 0
	L1D_cache_core[46]: Access = 3136, Miss = 2017, Miss_rate = 0.643, Pending_hits = 0, Reservation_fails = 0
	L1D_cache_core[47]: Access = 3136, Miss = 2016, Miss_rate = 0.643, Pending_hits = 0, Reservation_fails = 0
	L1D_cache_core[48]: Access = 3136, Miss = 2016, Miss_rate = 0.643, Pending_hits = 0, Reservation_fails = 0
	L1D_cache_core[49]: Access = 3136, Miss = 2017, Miss_rate = 0.643, Pending_hits = 0, Reservation_fails = 0
	L1D_cache_core[50]: Access = 3136, Miss = 2018, Miss_rate = 0.643, Pending_hits = 0, Reservation_fails = 0
	L1D_cache_core[51]: Access = 2646, Miss = 1701, Miss_rate = 0.643, Pending_hits = 0, Reservation_fails = 0
	L1D_cache_core[52]: Access = 2744, Miss = 1761, Miss_rate = 0.642, Pending_hits = 0, Reservation_fails = 0
	L1D_cache_core[53]: Access = 2352, Miss = 1508, Miss_rate = 0.641, Pending_hits = 0, Reservation_fails = 0
	L1D_cache_core[54]: Access = 2156, Miss = 1386, Miss_rate = 0.643, Pending_hits = 0, Reservation_fails = 0
	L1D_cache_core[55]: Access = 3920, Miss = 2521, Miss_rate = 0.643, Pending_hits = 0, Reservation_fails = 0
	L1D_cache_core[56]: Access = 4312, Miss = 2772, Miss_rate = 0.643, Pending_hits = 0, Reservation_fails = 0
	L1D_cache_core[57]: Access = 3528, Miss = 2268, Miss_rate = 0.643, Pending_hits = 0, Reservation_fails = 0
	L1D_cache_core[58]: Access = 3332, Miss = 2142, Miss_rate = 0.643, Pending_hits = 0, Reservation_fails = 0
	L1D_cache_core[59]: Access = 3430, Miss = 2205, Miss_rate = 0.643, Pending_hits = 0, Reservation_fails = 0
	L1D_cache_core[60]: Access = 3234, Miss = 2082, Miss_rate = 0.644, Pending_hits = 0, Reservation_fails = 0
	L1D_cache_core[61]: Access = 3136, Miss = 2016, Miss_rate = 0.643, Pending_hits = 0, Reservation_fails = 0
	L1D_cache_core[62]: Access = 3136, Miss = 2017, Miss_rate = 0.643, Pending_hits = 0, Reservation_fails = 0
	L1D_cache_core[63]: Access = 3136, Miss = 2017, Miss_rate = 0.643, Pending_hits = 0, Reservation_fails = 0
	L1D_cache_core[64]: Access = 3136, Miss = 2012, Miss_rate = 0.642, Pending_hits = 0, Reservation_fails = 0
	L1D_cache_core[65]: Access = 3136, Miss = 2015, Miss_rate = 0.643, Pending_hits = 0, Reservation_fails = 0
	L1D_cache_core[66]: Access = 4704, Miss = 3025, Miss_rate = 0.643, Pending_hits = 0, Reservation_fails = 0
	L1D_cache_core[67]: Access = 4704, Miss = 3025, Miss_rate = 0.643, Pending_hits = 0, Reservation_fails = 0
	L1D_cache_core[68]: Access = 4704, Miss = 3025, Miss_rate = 0.643, Pending_hits = 0, Reservation_fails = 0
	L1D_cache_core[69]: Access = 4606, Miss = 2961, Miss_rate = 0.643, Pending_hits = 0, Reservation_fails = 0
	L1D_cache_core[70]: Access = 4508, Miss = 2899, Miss_rate = 0.643, Pending_hits = 0, Reservation_fails = 0
	L1D_cache_core[71]: Access = 4606, Miss = 2961, Miss_rate = 0.643, Pending_hits = 0, Reservation_fails = 0
	L1D_cache_core[72]: Access = 4410, Miss = 2836, Miss_rate = 0.643, Pending_hits = 0, Reservation_fails = 0
	L1D_cache_core[73]: Access = 4410, Miss = 2837, Miss_rate = 0.643, Pending_hits = 0, Reservation_fails = 0
	L1D_cache_core[74]: Access = 4410, Miss = 2836, Miss_rate = 0.643, Pending_hits = 0, Reservation_fails = 0
	L1D_cache_core[75]: Access = 3626, Miss = 2331, Miss_rate = 0.643, Pending_hits = 0, Reservation_fails = 0
	L1D_cache_core[76]: Access = 4018, Miss = 2583, Miss_rate = 0.643, Pending_hits = 0, Reservation_fails = 0
	L1D_cache_core[77]: Access = 5488, Miss = 3528, Miss_rate = 0.643, Pending_hits = 0, Reservation_fails = 0
	L1D_cache_core[78]: Access = 5782, Miss = 3717, Miss_rate = 0.643, Pending_hits = 0, Reservation_fails = 0
	L1D_cache_core[79]: Access = 5390, Miss = 3467, Miss_rate = 0.643, Pending_hits = 0, Reservation_fails = 0
	L1D_cache_core[80]: Access = 5096, Miss = 3276, Miss_rate = 0.643, Pending_hits = 0, Reservation_fails = 0
	L1D_cache_core[81]: Access = 5096, Miss = 3276, Miss_rate = 0.643, Pending_hits = 0, Reservation_fails = 0
	L1D_cache_core[82]: Access = 4802, Miss = 3088, Miss_rate = 0.643, Pending_hits = 0, Reservation_fails = 0
	L1D_cache_core[83]: Access = 4900, Miss = 3151, Miss_rate = 0.643, Pending_hits = 0, Reservation_fails = 0
	L1D_cache_core[84]: Access = 4802, Miss = 3088, Miss_rate = 0.643, Pending_hits = 0, Reservation_fails = 0
	L1D_cache_core[85]: Access = 4704, Miss = 3024, Miss_rate = 0.643, Pending_hits = 0, Reservation_fails = 0
	L1D_cache_core[86]: Access = 4802, Miss = 3088, Miss_rate = 0.643, Pending_hits = 0, Reservation_fails = 0
	L1D_cache_core[87]: Access = 4704, Miss = 3024, Miss_rate = 0.643, Pending_hits = 0, Reservation_fails = 0
	L1D_cache_core[88]: Access = 6566, Miss = 4222, Miss_rate = 0.643, Pending_hits = 0, Reservation_fails = 0
	L1D_cache_core[89]: Access = 6272, Miss = 4034, Miss_rate = 0.643, Pending_hits = 0, Reservation_fails = 0
	L1D_cache_core[90]: Access = 6370, Miss = 4098, Miss_rate = 0.643, Pending_hits = 0, Reservation_fails = 0
	L1D_cache_core[91]: Access = 6076, Miss = 3910, Miss_rate = 0.644, Pending_hits = 0, Reservation_fails = 0
	L1D_cache_core[92]: Access = 5880, Miss = 3780, Miss_rate = 0.643, Pending_hits = 0, Reservation_fails = 0
	L1D_cache_core[93]: Access = 5586, Miss = 3592, Miss_rate = 0.643, Pending_hits = 0, Reservation_fails = 0
	L1D_cache_core[94]: Access = 5390, Miss = 3469, Miss_rate = 0.644, Pending_hits = 0, Reservation_fails = 0
	L1D_cache_core[95]: Access = 5586, Miss = 3591, Miss_rate = 0.643, Pending_hits = 0, Reservation_fails = 0
	L1D_cache_core[96]: Access = 5880, Miss = 3780, Miss_rate = 0.643, Pending_hits = 0, Reservation_fails = 0
	L1D_cache_core[97]: Access = 5292, Miss = 3402, Miss_rate = 0.643, Pending_hits = 0, Reservation_fails = 0
	L1D_cache_core[98]: Access = 5684, Miss = 3654, Miss_rate = 0.643, Pending_hits = 0, Reservation_fails = 0
	L1D_cache_core[99]: Access = 7448, Miss = 4789, Miss_rate = 0.643, Pending_hits = 0, Reservation_fails = 0
	L1D_cache_core[100]: Access = 7546, Miss = 4855, Miss_rate = 0.643, Pending_hits = 0, Reservation_fails = 0
	L1D_cache_core[101]: Access = 7252, Miss = 4665, Miss_rate = 0.643, Pending_hits = 0, Reservation_fails = 0
	L1D_cache_core[102]: Access = 7154, Miss = 4603, Miss_rate = 0.643, Pending_hits = 0, Reservation_fails = 0
	L1D_cache_core[103]: Access = 6762, Miss = 4350, Miss_rate = 0.643, Pending_hits = 0, Reservation_fails = 0
	L1D_cache_core[104]: Access = 6468, Miss = 4159, Miss_rate = 0.643, Pending_hits = 0, Reservation_fails = 0
	L1D_cache_core[105]: Access = 6664, Miss = 4286, Miss_rate = 0.643, Pending_hits = 0, Reservation_fails = 0
	L1D_cache_core[106]: Access = 6566, Miss = 4224, Miss_rate = 0.643, Pending_hits = 0, Reservation_fails = 0
	L1D_cache_core[107]: Access = 6762, Miss = 4349, Miss_rate = 0.643, Pending_hits = 0, Reservation_fails = 0
	L1D_cache_core[108]: Access = 6370, Miss = 4091, Miss_rate = 0.642, Pending_hits = 0, Reservation_fails = 0
	L1D_cache_core[109]: Access = 6468, Miss = 4158, Miss_rate = 0.643, Pending_hits = 0, Reservation_fails = 0
	L1D_total_cache_accesses = 401408
	L1D_total_cache_misses = 258086
	L1D_total_cache_miss_rate = 0.6430
	L1D_total_cache_pending_hits = 0
	L1D_total_cache_reservation_fails = 0
	L1D_cache_data_port_util = 0.002
	L1D_cache_fill_port_util = 0.002
L1C_cache:
	L1C_total_cache_accesses = 131072
	L1C_total_cache_misses = 14080
	L1C_total_cache_miss_rate = 0.1074
	L1C_total_cache_pending_hits = 0
	L1C_total_cache_reservation_fails = 663004
L1T_cache:
	L1T_total_cache_accesses = 0
	L1T_total_cache_misses = 0
	L1T_total_cache_pending_hits = 0
	L1T_total_cache_reservation_fails = 0

Total_core_cache_stats:
	Total_core_cache_stats_breakdown[GLOBAL_ACC_R][HIT] = 40
	Total_core_cache_stats_breakdown[GLOBAL_ACC_R][HIT_RESERVED] = 0
	Total_core_cache_stats_breakdown[GLOBAL_ACC_R][MISS] = 107131
	Total_core_cache_stats_breakdown[GLOBAL_ACC_R][RESERVATION_FAIL] = 0
	Total_core_cache_stats_breakdown[GLOBAL_ACC_R][SECTOR_MISS] = 97629
	Total_core_cache_stats_breakdown[LOCAL_ACC_R][HIT] = 0
	Total_core_cache_stats_breakdown[LOCAL_ACC_R][HIT_RESERVED] = 0
	Total_core_cache_stats_breakdown[LOCAL_ACC_R][MISS] = 0
	Total_core_cache_stats_breakdown[LOCAL_ACC_R][RESERVATION_FAIL] = 0
	Total_core_cache_stats_breakdown[LOCAL_ACC_R][SECTOR_MISS] = 0
	Total_core_cache_stats_breakdown[CONST_ACC_R][HIT] = 116992
	Total_core_cache_stats_breakdown[CONST_ACC_R][HIT_RESERVED] = 0
	Total_core_cache_stats_breakdown[CONST_ACC_R][MISS] = 14080
	Total_core_cache_stats_breakdown[CONST_ACC_R][RESERVATION_FAIL] = 663004
	Total_core_cache_stats_breakdown[CONST_ACC_R][SECTOR_MISS] = 0
	Total_core_cache_stats_breakdown[TEXTURE_ACC_R][HIT] = 0
	Total_core_cache_stats_breakdown[TEXTURE_ACC_R][HIT_RESERVED] = 0
	Total_core_cache_stats_breakdown[TEXTURE_ACC_R][MISS] = 0
	Total_core_cache_stats_breakdown[TEXTURE_ACC_R][RESERVATION_FAIL] = 0
	Total_core_cache_stats_breakdown[TEXTURE_ACC_R][SECTOR_MISS] = 0
	Total_core_cache_stats_breakdown[GLOBAL_ACC_W][HIT] = 143282
	Total_core_cache_stats_breakdown[GLOBAL_ACC_W][HIT_RESERVED] = 0
	Total_core_cache_stats_breakdown[GLOBAL_ACC_W][MISS] = 48609
	Total_core_cache_stats_breakdown[GLOBAL_ACC_W][RESERVATION_FAIL] = 0
	Total_core_cache_stats_breakdown[GLOBAL_ACC_W][SECTOR_MISS] = 4717
	Total_core_cache_stats_breakdown[LOCAL_ACC_W][HIT] = 0
	Total_core_cache_stats_breakdown[LOCAL_ACC_W][HIT_RESERVED] = 0
	Total_core_cache_stats_breakdown[LOCAL_ACC_W][MISS] = 0
	Total_core_cache_stats_breakdown[LOCAL_ACC_W][RESERVATION_FAIL] = 0
	Total_core_cache_stats_breakdown[LOCAL_ACC_W][SECTOR_MISS] = 0
	Total_core_cache_stats_breakdown[L1_WRBK_ACC][HIT] = 0
	Total_core_cache_stats_breakdown[L1_WRBK_ACC][HIT_RESERVED] = 0
	Total_core_cache_stats_breakdown[L1_WRBK_ACC][MISS] = 0
	Total_core_cache_stats_breakdown[L1_WRBK_ACC][RESERVATION_FAIL] = 0
	Total_core_cache_stats_breakdown[L1_WRBK_ACC][SECTOR_MISS] = 0
	Total_core_cache_stats_breakdown[L2_WRBK_ACC][HIT] = 0
	Total_core_cache_stats_breakdown[L2_WRBK_ACC][HIT_RESERVED] = 0
	Total_core_cache_stats_breakdown[L2_WRBK_ACC][MISS] = 0
	Total_core_cache_stats_breakdown[L2_WRBK_ACC][RESERVATION_FAIL] = 0
	Total_core_cache_stats_breakdown[L2_WRBK_ACC][SECTOR_MISS] = 0
	Total_core_cache_stats_breakdown[INST_ACC_R][HIT] = 2166717
	Total_core_cache_stats_breakdown[INST_ACC_R][HIT_RESERVED] = 0
	Total_core_cache_stats_breakdown[INST_ACC_R][MISS] = 36931
	Total_core_cache_stats_breakdown[INST_ACC_R][RESERVATION_FAIL] = 156124
	Total_core_cache_stats_breakdown[INST_ACC_R][SECTOR_MISS] = 0
	Total_core_cache_stats_breakdown[L1_WR_ALLOC_R][HIT] = 0
	Total_core_cache_stats_breakdown[L1_WR_ALLOC_R][HIT_RESERVED] = 0
	Total_core_cache_stats_breakdown[L1_WR_ALLOC_R][MISS] = 0
	Total_core_cache_stats_breakdown[L1_WR_ALLOC_R][RESERVATION_FAIL] = 0
	Total_core_cache_stats_breakdown[L1_WR_ALLOC_R][SECTOR_MISS] = 0
	Total_core_cache_stats_breakdown[L2_WR_ALLOC_R][HIT] = 0
	Total_core_cache_stats_breakdown[L2_WR_ALLOC_R][HIT_RESERVED] = 0
	Total_core_cache_stats_breakdown[L2_WR_ALLOC_R][MISS] = 0
	Total_core_cache_stats_breakdown[L2_WR_ALLOC_R][RESERVATION_FAIL] = 0
	Total_core_cache_stats_breakdown[L2_WR_ALLOC_R][SECTOR_MISS] = 0
	Total_core_cache_stats_breakdown[GLOBAL_ACC_R][TOTAL_ACCESS] = 204800
	Total_core_cache_stats_breakdown[CONST_ACC_R][TOTAL_ACCESS] = 131072
	Total_core_cache_stats_breakdown[GLOBAL_ACC_W][TOTAL_ACCESS] = 196608
	Total_core_cache_stats_breakdown[INST_ACC_R][TOTAL_ACCESS] = 2203648

Total_core_cache_fail_stats:
	Total_core_cache_fail_stats_breakdown[CONST_ACC_R][MSHR_MERGE_ENRTY_FAIL] = 663004
	Total_core_cache_fail_stats_breakdown[INST_ACC_R][MSHR_MERGE_ENRTY_FAIL] = 156124
Shader 0 warp_id issue ditsribution:
warp_id:
0, 1, 2, 3, 4, 5, 6, 7, 8, 9, 10, 11, 12, 13, 14, 15, 16, 17, 18, 19, 20, 21, 22, 23, 24, 25, 26, 27, 28, 29, 30, 31, 32, 33, 34, 35, 36, 37, 38, 39, 40, 41, 42, 43, 44, 45, 46, 47, 48, 49, 50, 51, 52, 53, 54, 55, 56, 57, 58, 59, 60, 61, 62, 63, 
distro:
298, 232, 254, 232, 276, 232, 254, 232, 149, 116, 127, 116, 138, 116, 127, 116, 298, 232, 254, 232, 276, 232, 254, 232, 298, 232, 254, 232, 276, 232, 254, 232, 298, 232, 254, 232, 276, 232, 254, 232, 298, 232, 254, 232, 276, 232, 254, 232, 298, 232, 254, 232, 276, 232, 254, 232, 149, 116, 127, 116, 138, 116, 127, 116, 
gpgpu_n_tot_thrd_icount = 131727360
gpgpu_n_tot_w_icount = 4116480
gpgpu_n_stall_shd_mem = 933340
gpgpu_n_mem_read_local = 0
gpgpu_n_mem_write_local = 0
gpgpu_n_mem_read_global = 155492
gpgpu_n_mem_write_global = 196608
gpgpu_n_mem_texture = 0
gpgpu_n_mem_const = 220
gpgpu_n_load_insn  = 1114112
gpgpu_n_store_insn = 1114112
gpgpu_n_shmem_insn = 8323072
gpgpu_n_sstarr_insn = 0
gpgpu_n_tex_insn = 0
gpgpu_n_const_mem_insn = 0
gpgpu_n_param_mem_insn = 4194304
gpgpu_n_shmem_bkconflict = 0
gpgpu_n_cache_bkconflict = 0
gpgpu_n_intrawarp_mshr_merge = 0
gpgpu_n_cmem_portconflict = 663004
gpgpu_stall_shd_mem[c_mem][resource_stall] = 663004
gpgpu_stall_shd_mem[s_mem][bk_conf] = 0
gpgpu_stall_shd_mem[gl_mem][resource_stall] = 0
gpgpu_stall_shd_mem[gl_mem][coal_stall] = 270336
gpgpu_stall_shd_mem[gl_mem][data_port_stall] = 0
gpu_reg_bank_conflict_stalls = 0
Warp Occupancy Distribution:
Stall:808844	W0_Idle:46967826	W0_Scoreboard:40025958	W1:0	W2:425984	W3:0	W4:0	W5:0	W6:0	W7:0	W8:0	W9:0	W10:0	W11:0	W12:0	W13:0	W14:0	W15:0	W16:675840	W17:0	W18:0	W19:0	W20:0	W21:0	W22:0	W23:0	W24:0	W25:0	W26:0	W27:0	W28:0	W29:0	W30:0	W31:0	W32:3014656
single_issue_nums: WS0:1175552	WS1:950272	WS2:1040384	WS3:950272	
dual_issue_nums: WS0:0	WS1:0	WS2:0	WS3:0	
traffic_breakdown_coretomem[CONST_ACC_R] = 1760 {8:220,}
traffic_breakdown_coretomem[GLOBAL_ACC_R] = 1243936 {8:155492,}
traffic_breakdown_coretomem[GLOBAL_ACC_W] = 7864320 {40:196608,}
traffic_breakdown_coretomem[INST_ACC_R] = 10560 {8:1320,}
traffic_breakdown_memtocore[CONST_ACC_R] = 17600 {40:440,}
traffic_breakdown_memtocore[GLOBAL_ACC_R] = 6219680 {40:155492,}
traffic_breakdown_memtocore[GLOBAL_ACC_W] = 1572864 {8:196608,}
traffic_breakdown_memtocore[INST_ACC_R] = 211200 {40:5280,}
maxmflatency = 70541 
max_icnt2mem_latency = 68703 
maxmrqlatency = 1889 
max_icnt2sh_latency = 9248 
averagemflatency = 6465 
avg_icnt2mem_latency = 4765 
avg_mrq_latency = 170 
avg_icnt2sh_latency = 1219 
mrq_lat_table:9428 	12243 	4378 	5832 	11361 	29960 	35490 	39751 	33235 	12022 	850 	0 	0 	0 	0 	0 	0 	0 	0 	0 	0 	0 	0 	0 	0 	0 	0 	0 	0 	0 	0 	0 	
dq_lat_table:0 	0 	0 	0 	0 	0 	0 	0 	0 	0 	0 	0 	0 	0 	0 	0 	0 	0 	0 	0 	0 	0 	0 	0 	0 	0 	0 	0 	0 	0 	0 	0 	
mf_lat_table:0 	0 	0 	0 	0 	0 	0 	25871 	33245 	44078 	34970 	41707 	100832 	45922 	14224 	9097 	2594 	0 	0 	0 	0 	0 	0 	0 	0 	0 	0 	0 	0 	0 	0 	0 	
icnt2mem_lat_table:0 	0 	0 	10 	13936 	75920 	20186 	10011 	12897 	13902 	25120 	73187 	67159 	21571 	8929 	9420 	1392 	0 	0 	0 	0 	0 	0 	0 	
icnt2sh_lat_table:0 	0 	0 	5498 	29147 	34741 	19658 	20281 	37646 	57673 	63433 	72215 	11887 	361 	0 	0 	0 	0 	0 	0 	0 	0 	0 	0 	
mf_lat_pw_table:0 	0 	0 	0 	0 	0 	0 	2 	5 	1 	4 	13 	159 	29 	5 	0 	0 	0 	0 	0 	0 	0 	0 	0 	0 	0 	0 	0 	0 	0 	0 	0 	
maximum concurrent accesses to same row:
dram[0]:        30        24        25        32        28        24        19        31        20        27        25        26        24        30        30        27 
dram[1]:        24        30        33        44        37        32        36        38        24        38        32        34        26        32        32        32 
dram[2]:        32        24        27        38        32        40        29        37        24        38        32        32        32        32        32        32 
dram[3]:        34        26        38        48        24        34        31        32        34        31        30        33        33        32        27        26 
dram[4]:        29        32        37        32        29        38        29        32        34        31        26        24        24        32        29        31 
maximum service time to same row:
dram[0]:      2851      2311      2704      2275      2745      2528      3012      2489      3232      2708      3271      2686      2781      2470      2967      2393 
dram[1]:      2228      2275      2251      2238      2248      2262      3225      2477      2791      2900      2793      2848      2371      2330      2430      2379 
dram[2]:      2240      2353      2289      2254      3200      2310      3207      2512      3157      2845      2721      3253      2516      2343      2468      2441 
dram[3]:      2330      2312      2295      2304      2311      2329      2506      2522      2819      2855      2724      2820      2305      2398      2337      2445 
dram[4]:      2371      2269      2267      2941      2311      2299      2474      2475      2774      2787      2822      2750      2263      2280      2256      2388 
average row accesses per activate:
dram[0]:  4.378521  4.133111  4.362832  4.064145  4.183534  4.334519  4.225862  4.352837  4.124579  4.448463  4.255319  4.167530  4.088481  4.129412  4.194585  4.073650 
dram[1]:  4.346552  4.457038  4.473297  4.365942  4.724951  4.609524  4.524436  4.487941  4.418182  4.973141  4.404059  4.337591  4.306452  4.449356  4.404676  4.540741 
dram[2]:  4.435853  4.516667  4.438532  4.392015  4.541510  4.530189  4.488806  4.653101  4.699219  4.944099  4.536398  4.452830  4.269982  4.359206  4.575472  4.322124 
dram[3]:  4.512059  4.526902  4.539474  4.776237  4.548023  4.788845  4.452206  4.559322  4.385321  4.611855  4.333941  4.540952  4.468519  4.418182  4.481617  4.425225 
dram[4]:  4.531531  4.610169  4.553505  4.422867  4.536765  4.734252  4.776493  4.601905  4.548803  4.583650  4.408680  4.544592  4.333333  4.299296  4.604089  4.639623 
average row locality = 194550/43727 = 4.449196
number of total memory accesses made:
dram[0]:         0         0         0         0         0         0         0         0         0         0         0         0         0         0         0         0 
dram[1]:         0         0         0         0         0         0         0         0         0         0         0         0         0         0         0         0 
dram[2]:         0         0         0         0         0         0         0         0         0         0         0         0         0         0         0         0 
dram[3]:         0         0         0         0         0         0         0         0         0         0         0         0         0         0         0         0 
dram[4]:         0         0         0         0         0         0         0         0         0         0         0         0         0         0         0         0 
total accesses: 0
min_bank_accesses = 0!
min_chip_accesses = 0!
number of total read accesses:
dram[0]:      1937      1925      1924      1928      1921      1918      1909      1906      1904      1908      1839      1853      1893      1905      1927      1931 
dram[1]:      1994      1910      1912      1892      1902      1902      1897      1888      1895      1880      1828      1833      1864      1875      1903      1903 
dram[2]:      2000      1902      1901      1899      1901      1894      1892      1889      1891      1867      1826      1824      1866      1868      1897      1900 
dram[3]:      1894      1901      1893      1900      1898      1893      1897      1888      1873      1884      1831      1845      1865      1882      1892      1906 
dram[4]:      1923      1911      1916      1907      1918      1892      1907      1897      1896      1879      1858      1844      1897      1895      1915      1917 
total dram reads = 151537
bank skew: 2000/1824 = 1.10
chip skew: 30528/30142 = 1.01
number of total write accesses:
dram[0]:       550       559       541       543       518       518       542       549       546       552       561       560       556       552       552       558 
dram[1]:       527       528       517       518       503       518       510       531       535       527       559       544       539       541       546       549 
dram[2]:       524       537       518       521       506       507       514       512       515       521       542       536       538       547       528       542 
dram[3]:       538       539       522       512       517       511       525       533       517       528       544       539       548       548       546       550 
dram[4]:       592       537       552       530       550       513       572       519       574       532       580       551       586       547       562       542 
total dram writes = 43013
bank skew: 592/503 = 1.18
chip skew: 8839/8408 = 1.05
average mf latency per bank:
dram[0]:      25150     25179     24739     26145     23287     22938     23666     24287     24214     24011     27470     28218     25331     25598     25258     25527
dram[1]:      10846      6224     11461      5037      9624      5078     10462      5136     11204      4618     11784      6592     11194      5113     10558      5664
dram[2]:       6192      4463      6573      3994      5019      4232      5419      3709      5925      3493      6324      4186      5904      3490      5052      3555
dram[3]:       4928      5934      4426      6108      4223      6160      3995      5805      3946      5880      4575      6480      4672      6072      4025      5841
dram[4]:      16916     13265     16758     12938     15441     12911     15972     13010     16050     13980     18590     14481     17189     13506     16040     13510
maximum mf latency per bank:
dram[0]:      68839     70064     67969     69374     67582     70006     69904     70262     69900     70541     69391     70461     68030     69499     67965     69626
dram[1]:      61672     60317     60583     58368     60381     60237     62514     60449     62657     60505     62503     56654     62108     60046     58788     59523
dram[2]:      58494     57179     58340     56998     53779     57287     59394     57224     59445     41905     59233     56960     58344     57256     58395     49281
dram[3]:      56530     38454     56101     34803     51391     52882     55991     52550     40780     25843     55016     37138     55799     40500     56408     55039
dram[4]:      55359     40339     54231     37486     53681     40752     55300     40623     54228     40672     54759     39033     55505     39010     54087     34463
Memory Partition 0: 
Cache L2_bank_000:
MSHR contents

Cache L2_bank_001:
MSHR contents

In Dram Latency Queue (total = 1): 
Ready @ 110064 -   mf: uid=3603993, sid4294967295:w4294967295, part=0, addr=0xc04b4900, store, size=64, L2_WRBK  status = IN_PARTITION_DRAM_LATENCY_QUEUE (109964), 
DRAM[0]: 16 bks, busW=32 BL=2 CL=12, tRRD=3 tCCD=1, tRCD=12 tRAS=28 tRP=12 tRC=40
n_cmd=75615 n_nop=23053 n_act=9316 n_pre=9302 n_ref_event=0 n_req=39285 n_rd=30528 n_rd_L2_A=0 n_write=0 n_wr_bk=15650 bw_util=0.6107
n_activity=72984 dram_eff=0.6327
bk0: 1937a 35610i bk1: 1925a 32866i bk2: 1924a 35574i bk3: 1928a 33910i bk4: 1921a 35501i bk5: 1918a 36132i bk6: 1909a 35747i bk7: 1906a 34917i bk8: 1904a 34614i bk9: 1908a 34941i bk10: 1839a 35815i bk11: 1853a 35304i bk12: 1893a 34067i bk13: 1905a 33047i bk14: 1927a 33056i bk15: 1931a 33881i 

------------------------------------------------------------------------

Row_Buffer_Locality = 0.762836
Row_Buffer_Locality_read = 0.857279
Row_Buffer_Locality_write = 0.433596
Bank_Level_Parallism = 9.692135
Bank_Level_Parallism_Col = 7.089101
Bank_Level_Parallism_Ready = 2.992745
write_to_read_ratio_blp_rw_average = 0.563984
GrpLevelPara = 3.309743 

BW Util details:
bwutil = 0.610699 
total_CMD = 75615 
util_bw = 46178 
Wasted_Col = 22975 
Wasted_Row = 2466 
Idle = 3996 

BW Util Bottlenecks: 
RCDc_limit = 14438 
RCDWRc_limit = 16924 
WTRc_limit = 15539 
RTWc_limit = 91004 
CCDLc_limit = 19374 
rwq = 0 
CCDLc_limit_alone = 10808 
WTRc_limit_alone = 14126 
RTWc_limit_alone = 83851 

Commands details: 
total_CMD = 75615 
n_nop = 23053 
Read = 30528 
Write = 0 
L2_Alloc = 0 
L2_WB = 15650 
n_act = 9316 
n_pre = 9302 
n_ref = 0 
n_req = 39285 
total_req = 46178 

Dual Bus Interface Util: 
issued_total_row = 18618 
issued_total_col = 46178 
Row_Bus_Util =  0.246221 
CoL_Bus_Util = 0.610699 
Either_Row_CoL_Bus_Util = 0.695127 
Issued_on_Two_Bus_Simul_Util = 0.161793 
issued_two_Eff = 0.232754 
queue_avg = 65.910530 


dram_util_bins: 0 0 0 0 0 0 0 0 0 0
dram_eff_bins: 0 0 0 0 0 0 0 0 0 0
mrqq: max=128 avg=65.9105
Memory Partition 1: 
Cache L2_bank_002:
MSHR contents

Cache L2_bank_003:
MSHR contents

In Dram Latency Queue (total = 0): 
DRAM[1]: 16 bks, busW=32 BL=2 CL=12, tRRD=3 tCCD=1, tRCD=12 tRAS=28 tRP=12 tRC=40
n_cmd=75615 n_nop=23662 n_act=8646 n_pre=8632 n_ref_event=0 n_req=38770 n_rd=30278 n_rd_L2_A=0 n_write=0 n_wr_bk=15408 bw_util=0.6042
n_activity=73378 dram_eff=0.6226
bk0: 1994a 38947i bk1: 1910a 39918i bk2: 1912a 41077i bk3: 1892a 40357i bk4: 1902a 40509i bk5: 1902a 37866i bk6: 1897a 39300i bk7: 1888a 39252i bk8: 1895a 38481i bk9: 1880a 41122i bk10: 1828a 37769i bk11: 1833a 39743i bk12: 1864a 38072i bk13: 1875a 37769i bk14: 1903a 37405i bk15: 1903a 37686i 

------------------------------------------------------------------------

Row_Buffer_Locality = 0.776941
Row_Buffer_Locality_read = 0.872052
Row_Buffer_Locality_write = 0.437824
Bank_Level_Parallism = 8.653224
Bank_Level_Parallism_Col = 6.386678
Bank_Level_Parallism_Ready = 2.673226
write_to_read_ratio_blp_rw_average = 0.588799
GrpLevelPara = 3.171261 

BW Util details:
bwutil = 0.604192 
total_CMD = 75615 
util_bw = 45686 
Wasted_Col = 23648 
Wasted_Row = 2701 
Idle = 3580 

BW Util Bottlenecks: 
RCDc_limit = 12054 
RCDWRc_limit = 18466 
WTRc_limit = 12727 
RTWc_limit = 80115 
CCDLc_limit = 20112 
rwq = 0 
CCDLc_limit_alone = 12026 
WTRc_limit_alone = 11579 
RTWc_limit_alone = 73177 

Commands details: 
total_CMD = 75615 
n_nop = 23662 
Read = 30278 
Write = 0 
L2_Alloc = 0 
L2_WB = 15408 
n_act = 8646 
n_pre = 8632 
n_ref = 0 
n_req = 38770 
total_req = 45686 

Dual Bus Interface Util: 
issued_total_row = 17278 
issued_total_col = 45686 
Row_Bus_Util =  0.228500 
CoL_Bus_Util = 0.604192 
Either_Row_CoL_Bus_Util = 0.687073 
Issued_on_Two_Bus_Simul_Util = 0.145619 
issued_two_Eff = 0.211942 
queue_avg = 55.496674 


dram_util_bins: 0 0 0 0 0 0 0 0 0 0
dram_eff_bins: 0 0 0 0 0 0 0 0 0 0
mrqq: max=128 avg=55.4967
Memory Partition 2: 
Cache L2_bank_004:
MSHR contents

Cache L2_bank_005:
MSHR contents

In Dram Latency Queue (total = 0): 
DRAM[2]: 16 bks, busW=32 BL=2 CL=12, tRRD=3 tCCD=1, tRCD=12 tRAS=28 tRP=12 tRC=40
n_cmd=75615 n_nop=23951 n_act=8576 n_pre=8560 n_ref_event=0 n_req=38625 n_rd=30217 n_rd_L2_A=0 n_write=0 n_wr_bk=15336 bw_util=0.6024
n_activity=73328 dram_eff=0.6212
bk0: 2000a 40509i bk1: 1902a 40927i bk2: 1901a 40580i bk3: 1899a 39995i bk4: 1901a 40101i bk5: 1894a 41683i bk6: 1892a 40354i bk7: 1889a 41339i bk8: 1891a 41164i bk9: 1867a 41793i bk10: 1826a 41276i bk11: 1824a 42025i bk12: 1866a 40305i bk13: 1868a 38263i bk14: 1897a 38803i bk15: 1900a 38755i 

------------------------------------------------------------------------

Row_Buffer_Locality = 0.777968
Row_Buffer_Locality_read = 0.871430
Row_Buffer_Locality_write = 0.442079
Bank_Level_Parallism = 8.351545
Bank_Level_Parallism_Col = 6.120044
Bank_Level_Parallism_Ready = 2.632538
write_to_read_ratio_blp_rw_average = 0.576209
GrpLevelPara = 3.169776 

BW Util details:
bwutil = 0.602433 
total_CMD = 75615 
util_bw = 45553 
Wasted_Col = 23456 
Wasted_Row = 2905 
Idle = 3701 

BW Util Bottlenecks: 
RCDc_limit = 12287 
RCDWRc_limit = 17464 
WTRc_limit = 12014 
RTWc_limit = 75444 
CCDLc_limit = 19251 
rwq = 0 
CCDLc_limit_alone = 11691 
WTRc_limit_alone = 10869 
RTWc_limit_alone = 69029 

Commands details: 
total_CMD = 75615 
n_nop = 23951 
Read = 30217 
Write = 0 
L2_Alloc = 0 
L2_WB = 15336 
n_act = 8576 
n_pre = 8560 
n_ref = 0 
n_req = 38625 
[...]

------------------------------------------------------------------------

Row_Buffer_Locality = 0.731444
Row_Buffer_Locality_read = 0.829577
Row_Buffer_Locality_write = 0.457663
Bank_Level_Parallism = 11.915676
Bank_Level_Parallism_Col = 8.291866
Bank_Level_Parallism_Ready = 2.939909
write_to_read_ratio_blp_rw_average = 0.601227
GrpLevelPara = 3.575243 

BW Util details:
bwutil = 0.653283 
total_CMD = 220448 
util_bw = 144015 
Wasted_Col = 65110 
Wasted_Row = 3874 
Idle = 7449 

BW Util Bottlenecks: 
RCDc_limit = 51237 
RCDWRc_limit = 56342 
WTRc_limit = 62512 
RTWc_limit = 351325 
CCDLc_limit = 67223 
rwq = 0 
CCDLc_limit_alone = 33561 
WTRc_limit_alone = 56832 
RTWc_limit_alone = 323343 

Commands details: 
total_CMD = 220448 
n_nop = 54988 
Read = 91531 
Write = 0 
L2_Alloc = 0 
L2_WB = 52484 
n_act = 33392 
n_pre = 33376 
n_ref = 0 
n_req = 124339 
total_req = 144015 

Dual Bus Interface Util: 
issued_total_row = 66768 
issued_total_col = 144015 
Row_Bus_Util =  0.302874 
CoL_Bus_Util = 0.653283 
Either_Row_CoL_Bus_Util = 0.750562 
Issued_on_Two_Bus_Simul_Util = 0.205595 
issued_two_Eff = 0.273921 
queue_avg = 94.326851 


dram_util_bins: 0 0 0 0 0 0 0 0 0 0
dram_eff_bins: 0 0 0 0 0 0 0 0 0 0
mrqq: max=128 avg=94.3269
Memory Partition 3: 
Cache L2_bank_006:
MSHR contents

Cache L2_bank_007:
MSHR contents

In Dram Latency Queue (total = 0): 
DRAM[3]: 16 bks, busW=32 BL=2 CL=12, tRRD=3 tCCD=1, tRCD=12 tRAS=28 tRP=12 tRC=40
n_cmd=220448 n_nop=54219 n_act=33720 n_pre=33704 n_ref_event=0 n_req=124790 n_rd=91741 n_rd_L2_A=0 n_write=0 n_wr_bk=52529 bw_util=0.6544
n_activity=215157 dram_eff=0.6705
bk0: 6009a 63810i bk1: 5750a 70357i bk2: 5743a 68973i bk3: 5769a 69454i bk4: 5811a 66875i bk5: 5796a 69183i bk6: 5751a 67686i bk7: 5722a 67396i bk8: 5683a 68244i bk9: 5665a 63915i bk10: 5592a 68061i bk11: 5586a 71359i bk12: 5676a 66339i bk13: 5693a 66268i bk14: 5736a 64852i bk15: 5759a 63222i 

------------------------------------------------------------------------

Row_Buffer_Locality = 0.729786
Row_Buffer_Locality_read = 0.822849
Row_Buffer_Locality_write = 0.471451
Bank_Level_Parallism = 12.057442
Bank_Level_Parallism_Col = 8.369904
Bank_Level_Parallism_Ready = 2.966084
write_to_read_ratio_blp_rw_average = 0.600134
GrpLevelPara = 3.574239 

BW Util details:
bwutil = 0.654440 
total_CMD = 220448 
util_bw = 144270 
Wasted_Col = 66107 
Wasted_Row = 3264 
Idle = 6807 

BW Util Bottlenecks: 
RCDc_limit = 53944 
RCDWRc_limit = 57069 
WTRc_limit = 64406 
RTWc_limit = 362693 
CCDLc_limit = 68814 
rwq = 0 
CCDLc_limit_alone = 34601 
WTRc_limit_alone = 58747 
RTWc_limit_alone = 334139 

Commands details: 
total_CMD = 220448 
n_nop = 54219 
Read = 91741 
Write = 0 
L2_Alloc = 0 
L2_WB = 52529 
n_act = 33720 
n_pre = 33704 
n_ref = 0 
n_req = 124790 
total_req = 144270 

Dual Bus Interface Util: 
issued_total_row = 67424 
issued_total_col = 144270 
Row_Bus_Util =  0.305850 
CoL_Bus_Util = 0.654440 
Either_Row_CoL_Bus_Util = 0.754051 
Issued_on_Two_Bus_Simul_Util = 0.206239 
issued_two_Eff = 0.273508 
queue_avg = 96.819946 


dram_util_bins: 0 0 0 0 0 0 0 0 0 0
dram_eff_bins: 0 0 0 0 0 0 0 0 0 0
mrqq: max=128 avg=96.8199
Memory Partition 4: 
Cache L2_bank_008:
MSHR contents

Cache L2_bank_009:
MSHR contents

In Dram Latency Queue (total = 0): 
DRAM[4]: 16 bks, busW=32 BL=2 CL=12, tRRD=3 tCCD=1, tRCD=12 tRAS=28 tRP=12 tRC=40
n_cmd=220448 n_nop=53833 n_act=33463 n_pre=33447 n_ref_event=0 n_req=126130 n_rd=92794 n_rd_L2_A=0 n_write=0 n_wr_bk=52886 bw_util=0.6608
n_activity=215295 dram_eff=0.6767
bk0: 6362a 58156i bk1: 5790a 68691i bk2: 5818a 61343i bk3: 5818a 66119i bk4: 5876a 62727i bk5: 5821a 66652i bk6: 5794a 62939i bk7: 5761a 66426i bk8: 5736a 60363i bk9: 5691a 66707i bk10: 5652a 61922i bk11: 5636a 68816i bk12: 5742a 60237i bk13: 5726a 65108i bk14: 5791a 59374i bk15: 5780a 65887i 

------------------------------------------------------------------------

Row_Buffer_Locality = 0.734694
Row_Buffer_Locality_read = 0.828200
Row_Buffer_Locality_write = 0.474412
Bank_Level_Parallism = 12.384504
Bank_Level_Parallism_Col = 8.744139
Bank_Level_Parallism_Ready = 3.067195
write_to_read_ratio_blp_rw_average = 0.599564
GrpLevelPara = 3.633775 

BW Util details:
bwutil = 0.660836 
total_CMD = 220448 
util_bw = 145680 
Wasted_Col = 62614 
Wasted_Row = 4216 
Idle = 7938 

BW Util Bottlenecks: 
RCDc_limit = 51783 
RCDWRc_limit = 54194 
WTRc_limit = 67327 
RTWc_limit = 362607 
CCDLc_limit = 67820 
rwq = 0 
CCDLc_limit_alone = 32755 
WTRc_limit_alone = 61230 
RTWc_limit_alone = 333639 

Commands details: 
total_CMD = 220448 
n_nop = 53833 
Read = 92794 
Write = 0 
L2_Alloc = 0 
L2_WB = 52886 
n_act = 33463 
n_pre = 33447 
n_ref = 0 
n_req = 126130 
total_req = 145680 

Dual Bus Interface Util: 
issued_total_row = 66910 
issued_total_col = 145680 
Row_Bus_Util =  0.303518 
CoL_Bus_Util = 0.660836 
Either_Row_CoL_Bus_Util = 0.755802 
Issued_on_Two_Bus_Simul_Util = 0.208553 
issued_two_Eff = 0.275936 
queue_avg = 104.907104 


dram_util_bins: 0 0 0 0 0 0 0 0 0 0
dram_eff_bins: 0 0 0 0 0 0 0 0 0 0
mrqq: max=128 avg=104.907

========= L2 cache stats =========
L2_cache_bank[0]: Access = 101170, Miss = 98394, Miss_rate = 0.973, Pending_hits = 521, Reservation_fails = 20295
L2_cache_bank[1]: Access = 98861, Miss = 98293, Miss_rate = 0.994, Pending_hits = 460, Reservation_fails = 24966
L2_cache_bank[2]: Access = 101438, Miss = 98437, Miss_rate = 0.970, Pending_hits = 806, Reservation_fails = 39516
L2_cache_bank[3]: Access = 99112, Miss = 98401, Miss_rate = 0.993, Pending_hits = 576, Reservation_fails = 37161
L2_cache_bank[4]: Access = 100643, Miss = 98249, Miss_rate = 0.976, Pending_hits = 842, Reservation_fails = 30785
L2_cache_bank[5]: Access = 98849, Miss = 98053, Miss_rate = 0.992, Pending_hits = 633, Reservation_fails = 26947
L2_cache_bank[6]: Access = 100632, Miss = 98402, Miss_rate = 0.978, Pending_hits = 943, Reservation_fails = 41977
L2_cache_bank[7]: Access = 98855, Miss = 98125, Miss_rate = 0.993, Pending_hits = 551, Reservation_fails = 31192
L2_cache_bank[8]: Access = 100915, Miss = 99168, Miss_rate = 0.983, Pending_hits = 1157, Reservation_fails = 39160
L2_cache_bank[9]: Access = 99103, Miss = 98415, Miss_rate = 0.993, Pending_hits = 558, Reservation_fails = 23877
L2_total_cache_accesses = 999578
L2_total_cache_misses = 983937
L2_total_cache_miss_rate = 0.9844
L2_total_cache_pending_hits = 7047
L2_total_cache_reservation_fails = 315876
L2_total_cache_breakdown:
	L2_cache_stats_breakdown[GLOBAL_ACC_R][HIT] = 1753
	L2_cache_stats_breakdown[GLOBAL_ACC_R][HIT_RESERVED] = 5316
	L2_cache_stats_breakdown[GLOBAL_ACC_R][MISS] = 140238
	L2_cache_stats_breakdown[GLOBAL_ACC_R][RESERVATION_FAIL] = 159585
	L2_cache_stats_breakdown[GLOBAL_ACC_R][SECTOR_MISS] = 318737
	L2_cache_stats_breakdown[LOCAL_ACC_R][HIT] = 0
	L2_cache_stats_breakdown[LOCAL_ACC_R][HIT_RESERVED] = 0
	L2_cache_stats_breakdown[LOCAL_ACC_R][MISS] = 0
	L2_cache_stats_breakdown[LOCAL_ACC_R][RESERVATION_FAIL] = 0
	L2_cache_stats_breakdown[LOCAL_ACC_R][SECTOR_MISS] = 0
	L2_cache_stats_breakdown[CONST_ACC_R][HIT] = 432
	L2_cache_stats_breakdown[CONST_ACC_R][HIT_RESERVED] = 6
	L2_cache_stats_breakdown[CONST_ACC_R][MISS] = 1
	L2_cache_stats_breakdown[CONST_ACC_R][RESERVATION_FAIL] = 117
	L2_cache_stats_breakdown[CONST_ACC_R][SECTOR_MISS] = 1
	L2_cache_stats_breakdown[TEXTURE_ACC_R][HIT] = 0
	L2_cache_stats_breakdown[TEXTURE_ACC_R][HIT_RESERVED] = 0
	L2_cache_stats_breakdown[TEXTURE_ACC_R][MISS] = 0
	L2_cache_stats_breakdown[TEXTURE_ACC_R][RESERVATION_FAIL] = 0
	L2_cache_stats_breakdown[TEXTURE_ACC_R][SECTOR_MISS] = 0
	L2_cache_stats_breakdown[GLOBAL_ACC_W][HIT] = 187
	L2_cache_stats_breakdown[GLOBAL_ACC_W][HIT_RESERVED] = 195
	L2_cache_stats_breakdown[GLOBAL_ACC_W][MISS] = 166059
	L2_cache_stats_breakdown[GLOBAL_ACC_W][RESERVATION_FAIL] = 132156
	L2_cache_stats_breakdown[GLOBAL_ACC_W][SECTOR_MISS] = 357853
	L2_cache_stats_breakdown[LOCAL_ACC_W][HIT] = 0
	L2_cache_stats_breakdown[LOCAL_ACC_W][HIT_RESERVED] = 0
	L2_cache_stats_breakdown[LOCAL_ACC_W][MISS] = 0
	L2_cache_stats_breakdown[LOCAL_ACC_W][RESERVATION_FAIL] = 0
	L2_cache_stats_breakdown[LOCAL_ACC_W][SECTOR_MISS] = 0
	L2_cache_stats_breakdown[L1_WRBK_ACC][HIT] = 0
	L2_cache_stats_breakdown[L1_WRBK_ACC][HIT_RESERVED] = 0
	L2_cache_stats_breakdown[L1_WRBK_ACC][MISS] = 0
	L2_cache_stats_breakdown[L1_WRBK_ACC][RESERVATION_FAIL] = 0
	L2_cache_stats_breakdown[L1_WRBK_ACC][SECTOR_MISS] = 0
	L2_cache_stats_breakdown[L2_WRBK_ACC][HIT] = 0
	L2_cache_stats_breakdown[L2_WRBK_ACC][HIT_RESERVED] = 0
	L2_cache_stats_breakdown[L2_WRBK_ACC][MISS] = 0
	L2_cache_stats_breakdown[L2_WRBK_ACC][RESERVATION_FAIL] = 0
	L2_cache_stats_breakdown[L2_WRBK_ACC][SECTOR_MISS] = 0
	L2_cache_stats_breakdown[INST_ACC_R][HIT] = 6222
	L2_cache_stats_breakdown[INST_ACC_R][HIT_RESERVED] = 1530
	L2_cache_stats_breakdown[INST_ACC_R][MISS] = 262
	L2_cache_stats_breakdown[INST_ACC_R][RESERVATION_FAIL] = 24018
	L2_cache_stats_breakdown[INST_ACC_R][SECTOR_MISS] = 786
	L2_cache_stats_breakdown[L1_WR_ALLOC_R][HIT] = 0
	L2_cache_stats_breakdown[L1_WR_ALLOC_R][HIT_RESERVED] = 0
	L2_cache_stats_breakdown[L1_WR_ALLOC_R][MISS] = 0
	L2_cache_stats_breakdown[L1_WR_ALLOC_R][RESERVATION_FAIL] = 0
	L2_cache_stats_breakdown[L1_WR_ALLOC_R][SECTOR_MISS] = 0
	L2_cache_stats_breakdown[L2_WR_ALLOC_R][HIT] = 0
	L2_cache_stats_breakdown[L2_WR_ALLOC_R][HIT_RESERVED] = 0
	L2_cache_stats_breakdown[L2_WR_ALLOC_R][MISS] = 0
	L2_cache_stats_breakdown[L2_WR_ALLOC_R][RESERVATION_FAIL] = 0
	L2_cache_stats_breakdown[L2_WR_ALLOC_R][SECTOR_MISS] = 0
	L2_cache_stats_breakdown[GLOBAL_ACC_R][TOTAL_ACCESS] = 466044
	L2_cache_stats_breakdown[CONST_ACC_R][TOTAL_ACCESS] = 440
	L2_cache_stats_breakdown[GLOBAL_ACC_W][TOTAL_ACCESS] = 524294
	L2_cache_stats_breakdown[INST_ACC_R][TOTAL_ACCESS] = 8800
L2_total_cache_reservation_fail_breakdown:
	L2_cache_stats_fail_breakdown[GLOBAL_ACC_R][LINE_ALLOC_FAIL] = 156478
	L2_cache_stats_fail_breakdown[GLOBAL_ACC_R][MISS_QUEUE_FULL] = 4
	L2_cache_stats_fail_breakdown[GLOBAL_ACC_R][MSHR_ENRTY_FAIL] = 2254
	L2_cache_stats_fail_breakdown[GLOBAL_ACC_R][MSHR_MERGE_ENRTY_FAIL] = 849
	L2_cache_stats_fail_breakdown[CONST_ACC_R][MSHR_MERGE_ENRTY_FAIL] = 117
	L2_cache_stats_fail_breakdown[GLOBAL_ACC_W][LINE_ALLOC_FAIL] = 132156
	L2_cache_stats_fail_breakdown[INST_ACC_R][LINE_ALLOC_FAIL] = 550
	L2_cache_stats_fail_breakdown[INST_ACC_R][MSHR_MERGE_ENRTY_FAIL] = 23468
L2_cache_data_port_util = 0.093
L2_cache_fill_port_util = 0.143

icnt_total_pkts_mem_to_simt=999578
icnt_total_pkts_simt_to_mem=992758
LD_mem_lat_dist  0 0 0 0 0 0 0 0 0 0 0 0 0 0 0 0 0 0 0 0 0 0 0 0 0 0 0
ST_mem_lat_dist  0 0 0 0 0 0 0 0 0 0 0 0 0 0 0 0 0 0 0 0 0 0 0 0 0 0 0
----------------------------Interconnect-DETAILS--------------------------------
-------TP Traffic Pattern Stats, Kernel 1 -------------------------------
TP MC NODE:	110	111	112	113	114	115	116	117	118	119	
TP Node 0:	270	268	236	234	256	259	237	233	247	244	0	
TP Node 1:	243	240	251	243	260	260	238	236	264	257	0	
TP Node 2:	246	249	271	268	236	237	257	254	238	232	0	
TP Node 3:	272	270	238	232	239	241	265	265	241	236	0	
TP Node 4:	242	243	247	247	264	265	250	242	254	248	0	
TP Node 5:	237	235	276	269	228	230	258	250	254	248	0	
TP Node 6:	248	249	254	248	236	232	276	276	238	240	0	
TP Node 7:	251	250	254	251	256	257	236	231	256	252	0	
TP Node 8:	230	235	267	259	236	237	242	238	282	279	0	
TP Node 9:	243	243	255	252	244	246	260	260	247	243	0	
TP Node 10:	270	270	238	235	256	258	240	236	255	245	0	
TP Node 11:	245	243	248	245	260	261	239	235	264	256	0	
TP Node 12:	246	246	272	266	236	238	257	249	238	232	0	
TP Node 13:	269	269	238	234	236	239	267	262	237	235	0	
TP Node 14:	242	241	250	245	264	264	247	242	253	246	0	
TP Node 15:	234	234	276	270	228	229	256	252	255	250	0	
TP Node 16:	245	246	253	248	236	232	276	276	240	237	0	
TP Node 17:	251	248	257	256	256	257	233	232	260	255	0	
TP Node 18:	232	231	264	261	236	237	239	241	282	276	0	
TP Node 19:	242	241	255	252	244	246	260	260	248	244	0	
TP Node 20:	269	269	238	234	256	259	239	236	253	242	0	
TP Node 21:	244	241	247	248	260	260	238	244	264	257	0	
TP Node 22:	244	245	272	268	238	238	256	253	238	235	0	
TP Node 23:	268	268	238	231	236	240	266	260	239	237	0	
TP Node 24:	240	240	251	245	265	264	251	244	253	248	0	
TP Node 25:	233	234	274	272	228	230	256	252	253	251	0	
TP Node 26:	245	249	250	248	240	234	278	272	237	236	0	
TP Node 27:	250	249	256	250	260	256	240	229	258	258	0	
TP Node 28:	230	232	262	258	240	236	236	237	284	280	0	
TP Node 29:	239	238	258	252	248	245	260	257	249	246	0	
TP Node 30:	270	268	238	236	258	261	236	232	250	247	0	
TP Node 31:	240	244	247	242	260	262	236	236	263	260	0	
TP Node 32:	250	248	272	265	238	241	252	255	240	236	0	
TP Node 33:	269	270	239	232	243	237	266	261	236	240	0	
TP Node 34:	241	240	246	244	268	264	249	240	254	253	0	
TP Node 35:	233	232	276	268	230	229	255	249	252	250	0	
TP Node 36:	246	247	251	245	238	232	278	272	239	236	0	
TP Node 37:	250	249	256	250	256	258	236	228	257	254	0	
TP Node 38:	228	231	262	258	236	238	240	234	280	278	0	
TP Node 39:	242	240	255	251	246	248	260	257	246	243	0	
TP Node 40:	268	268	239	232	259	258	236	234	253	246	0	
TP Node 41:	243	243	250	248	260	260	242	242	263	259	0	
TP Node 42:	252	247	274	268	237	241	254	254	240	236	0	
TP Node 43:	268	269	238	236	240	241	268	264	245	241	0	
TP Node 44:	242	241	246	243	268	264	246	241	254	250	0	
TP Node 45:	237	234	274	268	230	230	255	250	254	252	0	
TP Node 46:	248	247	252	246	235	232	277	272	242	237	0	
TP Node 47:	248	250	257	246	258	260	232	230	263	254	0	
TP Node 48:	229	229	262	252	239	237	239	233	283	276	0	
TP Node 49:	243	239	255	249	249	247	262	256	252	244	0	
TP Node 50:	348	325	318	301	336	350	326	326	306	335	0	
TP Node 51:	242	241	246	238	260	261	239	236	260	256	0	
TP Node 52:	245	245	273	268	238	240	252	253	240	234	0	
TP Node 53:	269	269	238	232	241	238	266	262	243	239	0	
TP Node 54:	242	240	248	240	267	266	246	244	254	248	0	
TP Node 55:	425	458	507	479	480	461	480	463	465	454	0	
TP Node 56:	403	371	417	373	382	379	417	410	370	379	0	
TP Node 57:	437	456	460	405	458	431	409	414	469	433	0	
TP Node 58:	517	483	512	504	481	453	498	453	563	539	0	
TP Node 59:	515	489	504	519	516	470	532	466	505	487	0	
TP Node 60:	527	545	476	488	496	506	497	458	543	470	0	
TP Node 61:	521	464	506	455	514	507	455	538	480	566	0	
TP Node 62:	485	444	482	503	441	484	461	480	436	458	0	
TP Node 63:	521	507	497	464	508	471	534	518	470	504	0	
TP Node 64:	395	421	435	398	455	445	428	420	432	411	0	
TP Node 65:	514	498	514	486	466	453	495	528	519	527	0	
TP Node 66:	608	547	599	525	548	558	580	634	560	607	0	
TP Node 67:	582	575	543	566	552	557	564	523	596	570	0	
TP Node 68:	639	555	675	584	621	585	586	580	598	659	0	
TP Node 69:	547	568	546	606	574	591	640	554	569	579	0	
TP Node 70:	773	795	751	771	729	790	655	755	722	764	0	
TP Node 71:	714	666	650	684	695	696	741	630	698	712	0	
TP Node 72:	643	667	648	691	602	707	636	692	648	630	0	
TP Node 73:	622	542	550	561	538	560	598	560	566	525	0	
TP Node 74:	525	590	543	593	577	635	597	566	603	539	0	
TP Node 75:	516	462	525	518	495	459	535	478	496	518	0	
TP Node 76:	489	484	473	508	493	490	519	553	484	497	0	
TP Node 77:	740	752	787	749	799	785	709	786	776	769	0	
TP Node 78:	855	741	833	841	830	840	856	782	867	828	0	
TP Node 79:	861	737	854	806	833	800	816	810	799	813	0	
TP Node 80:	934	906	908	941	931	985	901	925	806	984	0	
TP Node 81:	966	978	931	928	980	1003	929	1041	1034	1053	0	
TP Node 82:	861	879	889	935	839	992	883	924	871	830	0	
TP Node 83:	949	940	920	911	885	898	927	870	887	885	0	
TP Node 84:	805	881	799	844	798	894	796	898	812	898	0	
TP Node 85:	742	825	793	827	695	782	738	813	841	741	0	
TP Node 86:	666	784	697	785	790	709	828	756	773	693	0	
TP Node 87:	832	682	764	747	744	788	782	683	735	740	0	
TP Node 88:	1079	1239	1147	1275	1229	1227	1231	1247	1302	1196	0	
TP Node 89:	1219	1296	1279	1324	1240	1243	1250	1184	1282	1193	0	
TP Node 90:	1256	1299	1161	1278	1145	1295	1214	1212	1204	1279	0	
TP Node 91:	1260	1202	1280	1212	1341	1222	1190	1272	1182	1321	0	
TP Node 92:	1290	1220	1330	1197	1338	1219	1283	1288	1249	1254	0	
TP Node 93:	1269	1295	1246	1255	1235	1218	1303	1180	1237	1246	0	
TP Node 94:	1203	1286	1173	1330	1233	1300	1196	1263	1303	1181	0	
TP Node 95:	1211	1200	1276	1176	1257	1205	1240	1264	1229	1263	0	
TP Node 96:	1170	1092	1178	1033	1093	1042	1110	1127	1145	1088	0	
TP Node 97:	996	1002	1025	991	1037	972	1001	971	1004	1007	0	
TP Node 98:	931	987	1045	983	983	1020	964	1009	1061	989	0	
TP Node 99:	1490	1407	1519	1442	1529	1452	1584	1516	1499	1531	0	
TP Node 100:	1486	1657	1472	1574	1445	1480	1475	1398	1526	1475	0	
TP Node 101:	1498	1561	1549	1506	1529	1497	1500	1451	1519	1525	0	
TP Node 102:	1691	1528	1629	1639	1551	1572	1601	1499	1571	1614	0	
TP Node 103:	1695	1662	1738	1576	1730	1577	1647	1706	1691	1646	0	
TP Node 104:	1591	1510	1573	1557	1602	1677	1587	1628	1540	1637	0	
TP Node 105:	1439	1508	1512	1575	1472	1523	1535	1472	1495	1441	0	
TP Node 106:	1477	1429	1514	1483	1490	1410	1506	1494	1392	1469	0	
TP Node 107:	1184	1364	1233	1265	1259	1230	1269	1254	1380	1206	0	
TP Node 108:	1235	1260	1307	1243	1254	1174	1180	1258	1339	1238	0	
TP Node 109:	1231	1285	1253	1239	1268	1235	1322	1258	1291	1269	0	
TP Node 110:	0	0	0	0	0	0	0	0	0	0	0	
TP Node 111:	0	0	0	0	0	0	0	0	0	0	0	
TP Node 112:	0	0	0	0	0	0	0	0	0	0	0	
TP Node 113:	0	0	0	0	0	0	0	0	0	0	0	
TP Node 114:	0	0	0	0	0	0	0	0	0	0	0	
TP Node 115:	0	0	0	0	0	0	0	0	0	0	0	
TP Node 116:	0	0	0	0	0	0	0	0	0	0	0	
TP Node 117:	0	0	0	0	0	0	0	0	0	0	0	
TP Node 118:	0	0	0	0	0	0	0	0	0	0	0	
TP Node 119:	0	0	0	0	0	0	0	0	0	0	0	
TP Node 120:	0	0	0	0	0	0	0	0	0	0	0	
-------TP Kernel 1 ENDS -------------------------------------------------
Class 0:
Packet latency average = 4726.36
	minimum = 8
	maximum = 176148
Network latency average = 4627.81
	minimum = 8
	maximum = 176143
Slowest packet = 815681
Flit latency average = 4627.81
	minimum = 8
	maximum = 176143
Slowest flit = 815687
Fragmentation average = 0
	minimum = 0
	maximum = 0
Injected packet rate average = 0.0502332
	minimum = 0 (at node 120)
	maximum = 0.311789 (at node 118)
Accepted packet rate average = 0.0502332
	minimum = 0 (at node 120)
	maximum = 0.306005 (at node 112)
Injected flit rate average = 0.0502332
	minimum = 0 (at node 120)
	maximum = 0.311789 (at node 118)
Accepted flit rate average= 0.0502332
	minimum = 0 (at node 120)
	maximum = 0.306005 (at node 112)
Injected packet length average = 1
Accepted packet length average = 1
Total in-flight flits = 0 (0 measured)
====== Overall Traffic Statistics ======
Request Flits: 639118
Reply Flits: 641758
====== Traffic class 0 ======
Packet latency average = 3743.58 (2 samples)
	minimum = 8 (2 samples)
	maximum = 122140 (2 samples)
Network latency average = 3622.69 (2 samples)
	minimum = 8 (2 samples)
	maximum = 122116 (2 samples)
Flit latency average = 3622.69 (2 samples)
	minimum = 8 (2 samples)
	maximum = 122116 (2 samples)
Fragmentation average = 0 (2 samples)
	minimum = 0 (2 samples)
	maximum = 0 (2 samples)
Injected packet rate average = 0.0518383 (2 samples)
	minimum = 0 (2 samples)
	maximum = 0.325986 (2 samples)
Accepted packet rate average = 0.0518383 (2 samples)
	minimum = 0 (2 samples)
	maximum = 0.316095 (2 samples)
Injected flit rate average = 0.0518383 (2 samples)
	minimum = 0 (2 samples)
	maximum = 0.325986 (2 samples)
Accepted flit rate average = 0.0518383 (2 samples)
	minimum = 0 (2 samples)
	maximum = 0.316095 (2 samples)
Injected packet size average = 1 (2 samples)
Accepted packet size average = 1 (2 samples)
Hops average = 8.39068 (2 samples)
----------------------------END-of-Interconnect-DETAILS-------------------------


gpgpu_simulation_time = 0 days, 1 hrs, 16 min, 42 sec (4602 sec)
gpgpu_simulation_rate = 35103 (inst/sec)
gpgpu_simulation_rate = 69 (cycle/sec)
Training done
GPGPU-Sim: *** exit detected ***
